*Heading
** Job name: Pressure_Box_With_Holes Model name: Model-1
** Generated by: Abaqus/CAE 2019
*Preprint, echo=NO, model=NO, history=NO, contact=NO
**
** PARTS
**
*Part, name=Bottom
*Node
      1,  0.524358988,  0.365513235,           0.
      2,  0.524358988,  0.340513229,           0.
      3,  0.549358964,  0.340513229,           0.
      4,  0.549358964,  0.365513235,           0.
      5,  0.549358964, 0.0355132446,           0.
      6,  0.524358988, 0.0355132446,           0.
      7,  0.524358988, 0.0105132433,           0.
      8,  0.549358964, 0.0105132433,           0.
      9, -0.225641027, 0.0355132446,           0.
     10, -0.250641018, 0.0355132446,           0.
     11, -0.250641018, 0.0105132433,           0.
     12, -0.225641027, 0.0105132433,           0.
     13, -0.250641018,  0.340513229,           0.
     14, -0.225641027,  0.340513229,           0.
     15, -0.225641027,  0.365513235,           0.
     16, -0.250641018,  0.365513235,           0.
     17, 0.0787908807,  0.365513235,           0.
     18,  0.549358964,  0.188013241,           0.
     19,  0.149358973, 0.0105132433,           0.
     20, -0.250641018,  0.188013241,           0.
** ... 58 like lines cut
*Element, type=S4R
1, 1, 2, 3, 4
2, 5, 6, 7, 8
3,  9, 10, 11, 12
4, 13, 14, 15, 16
 5,  2,  1, 21, 37
 6, 37, 21, 22, 36
 7, 36, 22, 23, 35
 8, 35, 23, 24, 34
 9, 34, 24, 25, 33
10, 33, 25, 17, 32
11, 32, 17, 26, 31
12, 31, 26, 27, 30
13, 30, 27, 28, 29
14, 29, 28, 15, 14
15,  6,  5, 18, 40
16, 40, 18, 38, 39
17, 39, 38,  3,  2
18,  7,  6, 41, 57
19, 57, 41, 42, 56
20, 56, 42, 43, 55
** ... 40 like lines cut
*Nset, nset=Bottom_Plate, generate
  1,  78,   1
*Elset, elset=Bottom_Plate, generate
  1,  60,   1
** Section: Bottom_Section
*Shell Section, elset=Bottom_Plate, material=Steel
0.013, 5
*End Part
**  
*Part, name=Cap
*Node
      1, -0.430492133, -0.284673691,           0.
      2, -0.469252139, -0.284673691,           0.
      3, -0.469252139, -0.323433697,           0.
      4, -0.430492133, -0.323433697,           0.
      5, -0.430492133, 0.0203263145,           0.
      6, -0.430492133, 0.0590863153,           0.
      7, -0.469252139, 0.0590863153,           0.
      8, -0.469252139, 0.0203263145,           0.
      9,  0.319507867, 0.0203263145,           0.
     10,  0.358267874, 0.0203263145,           0.
     11,  0.358267874, 0.0590863153,           0.
     12,  0.319507867, 0.0590863153,           0.
     13,  0.358267874, -0.284673691,           0.
     14,  0.319507867, -0.284673691,           0.
     15,  0.319507867, -0.323433697,           0.
     16,  0.358267874, -0.323433697,           0.
     17, -0.0554921404, -0.323433697,           0.
     18, -0.469252139, -0.132173687,           0.
     19, -0.0554921404, 0.0590863153,           0.
     20,  0.358267874, -0.132173687,           0.
** ... 142 like lines cut
*Element, type=S4R
1, 1, 2, 3, 4
2, 5, 6, 7, 8
3,  9, 10, 11, 12
4, 13, 14, 15, 16
 5,  1,  4, 21, 47
 6, 47, 21, 22, 46
 7, 46, 22, 23, 45
 8, 45, 23, 24, 44
 9, 44, 24, 25, 43
10, 43, 25, 26, 42
11, 42, 26, 17, 41
12, 41, 17, 27, 40
13, 40, 27, 28, 39
14, 39, 28, 29, 38
15, 38, 29, 30, 37
16, 37, 30, 31, 36
17, 36, 31, 32, 35
18, 35, 32, 33, 34
19, 34, 33, 15, 14
20,  2,  1, 48, 56
** ... 116 like lines cut
*Nset, nset=Cap, generate
   1,  162,    1
*Elset, elset=Cap, generate
   1,  136,    1
** Section: Cap_Section
*Shell Section, elset=Cap, material=Aluminum-6061, offset=SPOS
0.0254, 5
*End Part
**  
*Part, name=Long_Side
*Node
      1,           0.,           0.,           0.
      2, 0.0500000007,           0.,           0.
      3,  0.100000001,           0.,           0.
      4,  0.150000006,           0.,           0.
      5,  0.200000003,           0.,           0.
      6,         0.25,           0.,           0.
      7,  0.300000012,           0.,           0.
      8,  0.349999994,           0.,           0.
      9,  0.400000006,           0.,           0.
     10,  0.449999988,           0.,           0.
     11,          0.5,           0.,           0.
     12,  0.550000012,           0.,           0.
     13,  0.600000024,           0.,           0.
     14,  0.649999976,           0.,           0.
     15,  0.699999988,           0.,           0.
     16,         0.75,           0.,           0.
     17,           0., 0.0508333333,           0.
     18, 0.0500000007, 0.0508333333,           0.
     19,  0.100000001, 0.0508333333,           0.
     20,  0.150000006, 0.0508333333,           0.
** ... 92 like lines cut
*Element, type=S4R
 1,   1,   2,  18,  17
 2,   2,   3,  19,  18
 3,   3,   4,  20,  19
 4,   4,   5,  21,  20
 5,   5,   6,  22,  21
 6,   6,   7,  23,  22
 7,   7,   8,  24,  23
 8,   8,   9,  25,  24
 9,   9,  10,  26,  25
10,  10,  11,  27,  26
11,  11,  12,  28,  27
12,  12,  13,  29,  28
13,  13,  14,  30,  29
14,  14,  15,  31,  30
15,  15,  16,  32,  31
16,  17,  18,  34,  33
17,  18,  19,  35,  34
18,  19,  20,  36,  35
19,  20,  21,  37,  36
20,  21,  22,  38,  37
** ... 70 like lines cut
*Nset, nset="Long Side", generate
   1,  112,    1
*Elset, elset="Long Side", generate
  1,  90,   1
** Section: Bottom_Section
*Shell Section, elset="Long Side", material=Steel
0.013, 5
*End Part
**  
*Part, name="Short Side"
*Node
      1,           0.,           0.,           0.
      2, 0.0508333333,           0.,           0.
      3,  0.101666667,           0.,           0.
      4,  0.152500004,           0.,           0.
      5,  0.203333333,           0.,           0.
      6,  0.254166663,           0.,           0.
      7,  0.305000007,           0.,           0.
      8,           0., 0.0508333333,           0.
      9, 0.0508333333, 0.0508333333,           0.
     10,  0.101666667, 0.0508333333,           0.
     11,  0.152500004, 0.0508333333,           0.
     12,  0.203333333, 0.0508333333,           0.
     13,  0.254166663, 0.0508333333,           0.
     14,  0.305000007, 0.0508333333,           0.
     15,           0.,  0.101666667,           0.
     16, 0.0508333333,  0.101666667,           0.
     17,  0.101666667,  0.101666667,           0.
     18,  0.152500004,  0.101666667,           0.
     19,  0.203333333,  0.101666667,           0.
     20,  0.254166663,  0.101666667,           0.
** ... 29 like lines cut
*Element, type=S4R
 1,  1,  2,  9,  8
 2,  2,  3, 10,  9
 3,  3,  4, 11, 10
 4,  4,  5, 12, 11
 5,  5,  6, 13, 12
 6,  6,  7, 14, 13
 7,  8,  9, 16, 15
 8,  9, 10, 17, 16
 9, 10, 11, 18, 17
10, 11, 12, 19, 18
11, 12, 13, 20, 19
12, 13, 14, 21, 20
13, 15, 16, 23, 22
14, 16, 17, 24, 23
15, 17, 18, 25, 24
16, 18, 19, 26, 25
17, 19, 20, 27, 26
18, 20, 21, 28, 27
19, 22, 23, 30, 29
20, 23, 24, 31, 30
** ... 16 like lines cut
*Nset, nset=Side, generate
  1,  49,   1
*Elset, elset=Side, generate
  1,  36,   1
** Section: Bottom_Section
*Shell Section, elset=Side, material=Steel
0.013, 5
*End Part
**  
*Part, name="Short Side With Holes"
*Node
      1,  0.229641616,  0.146339595,           0.
      2,  0.226780325,  0.165568188,           0.
      3,  0.211160406,  0.177141622,           0.
      4,  0.191931814,  0.174280316,           0.
      5,   0.18035838,  0.158660412,           0.
      6,  0.183219686,  0.139431804,           0.
      7,   0.19883959,  0.127858385,           0.
      8,  0.218068197,  0.130719677,           0.
      9,  0.125400007,  0.152500004,           0.
     10,  0.117960513,  0.170460507,           0.
     11,  0.100000001,  0.177900001,           0.
     12, 0.0820394903,  0.170460507,           0.
     13, 0.0746000037,  0.152500004,           0.
     14, 0.0820394903,  0.134539485,           0.
     15,  0.100000001,  0.127100006,           0.
     16,  0.117960513,  0.134539485,           0.
     17,  0.305000007,           0.,           0.
     18,           0.,           0.,           0.
     19,  0.305000007,  0.305000007,           0.
     20,           0.,  0.305000007,           0.
** ... 82 like lines cut
*Element, type=S3
1,   4,  54,   5
2,  56,  93,  42
3,  54,  51,   5
4,  79,  68, 101
*Element, type=S4R
 5,  28,  56,  80,  29
 6,  56,  28,  27,  77
 7,  71,  67,  65,  41
 8,  51,  55,   6,   5
 9,  14,  94,  48,  15
10,  57,  76,  71,  41
11,  61, 102,  81,  59
12,  95,  97,  38, 102
13,  12,  11,  96,  44
14,  44,  74,  92,  97
15,   4,  62,  66,  54
16,  46,  11,  10,  64
17,  98,  69,  46,  64
18,  63,  45,  77,  75
19,  93,   2,   1,  42
20,  65,  52,   9,  16
21,  47,  53,  51,  54
22,  53,   9,  52,  51
23,  17,  30,  82,  21
24,  70,   7,  58,  73
** ... 61 like lines cut
*Nset, nset=Side, generate
   1,  102,    1
*Elset, elset=Side, generate
  1,  85,   1
** Section: Bottom_Section
*Shell Section, elset=Side, material=Steel
0.013, 5
*End Part
**  
**
** ASSEMBLY
**
*Assembly, name=Assembly
**  
*Instance, name=Long_Side-1, part=Long_Side
-0.0037497179251359, 0.268125243233336,    -0.268125
-0.0037497179251359, 0.268125243233336,    -0.268125, 0.996250294762916, 0.268125243233336,    -0.268125, 89.9999992730282
*End Instance
**  
*Instance, name="Short Side-1", part="Short Side"
-0.0037497179251359, -0.0368747567666645,    -0.268125
-0.0037497179251359, -0.0368747567666645,    -0.268125, -0.0037497179251359, -1.03687476945472,    -0.268125, 89.9999992730282
*End Instance
**  
*Instance, name=Long_Side-2, part=Long_Side
-0.0037497179251359, -0.0368747567666645,     0.036875
-0.0037497179251359, -0.0368747567666645,     0.036875, -1.00374973061319, -0.0368747567666646,     0.036875, 89.9999992730282
*End Instance
**  
*Instance, name=Bottom-1, part=Bottom
0.221891307715888,    -0.072388,     0.036875
*End Instance
**  
*Instance, name=Cap-1, part=Cap
0.426742420956601, 0.247798928594666,    -0.268125
*End Instance
**  
*Instance, name="Short Side With Holes-1", part="Short Side With Holes"
0.746250282074864, 0.268125243233336,     0.036875
0.746250282074864, 0.268125243233336,     0.036875, 0.168900012885238, 0.845475512422961, -0.540475269189626,         120.
*End Instance
**  
*Nset, nset=Bottom_Edges_Interaction, instance=Long_Side-1, generate
  1,  16,   1
*Nset, nset=Bottom_Edges_Interaction, instance="Short Side-1", generate
 1,  7,  1
*Nset, nset=Bottom_Edges_Interaction, instance=Long_Side-2, generate
  1,  16,   1
*Elset, elset=Bottom_Edges_Interaction, instance=Long_Side-1, generate
  1,  15,   1
*Elset, elset=Bottom_Edges_Interaction, instance="Short Side-1", generate
 1,  6,  1
*Elset, elset=Bottom_Edges_Interaction, instance=Long_Side-2, generate
  1,  15,   1
*Nset, nset=Set-8, instance=Bottom-1
  1,  3,  4,  5,  7,  8, 10, 11, 12, 13, 15, 16, 17, 18, 19, 20
 21, 22, 23, 24, 25, 26, 27, 28, 38, 50, 51, 52, 53, 54, 55, 56
 57, 58
*Elset, elset=Set-8, instance=Bottom-1, generate
  1,  30,   1
*Nset, nset=m_Set-15, instance=Long_Side-1, generate
   1,  112,    1
*Nset, nset=m_Set-15, instance=Long_Side-2, generate
   1,  112,    1
*Elset, elset=m_Set-15, instance=Long_Side-1, generate
  1,  90,   1
*Elset, elset=m_Set-15, instance=Long_Side-2, generate
  1,  90,   1
*Nset, nset=m_Set-22, instance="Short Side-1", generate
  1,  49,   1
*Nset, nset=m_Set-22, instance="Short Side With Holes-1", generate
   1,  102,    1
*Elset, elset=m_Set-22, instance="Short Side-1", generate
  1,  36,   1
*Elset, elset=m_Set-22, instance="Short Side With Holes-1", generate
  1,  85,   1
*Nset, nset=s_Set-2, instance=Long_Side-1, generate
   1,  112,    1
*Nset, nset=s_Set-2, instance=Long_Side-2, generate
   1,  112,    1
*Elset, elset=s_Set-2, instance=Long_Side-1, generate
  1,  90,   1
*Elset, elset=s_Set-2, instance=Long_Side-2, generate
  1,  90,   1
*Nset, nset=s_Set-4, instance=Long_Side-1, generate
  1,  97,  16
*Nset, nset=s_Set-4, instance=Long_Side-2, generate
  1,  97,  16
*Elset, elset=s_Set-4, instance=Long_Side-1, generate
  1,  76,  15
*Elset, elset=s_Set-4, instance=Long_Side-2, generate
  1,  76,  15
*Nset, nset=s_Set-5, instance=Long_Side-1, generate
  16,  112,   16
*Nset, nset=s_Set-5, instance=Long_Side-2, generate
  16,  112,   16
*Elset, elset=s_Set-5, instance=Long_Side-1, generate
 15,  90,  15
*Elset, elset=s_Set-5, instance=Long_Side-2, generate
 15,  90,  15
*Nset, nset=s_Set-6, instance=Long_Side-1, generate
  97,  112,    1
*Nset, nset=s_Set-6, instance="Short Side-1", generate
 43,  49,   1
*Nset, nset=s_Set-6, instance=Long_Side-2, generate
  97,  112,    1
*Elset, elset=s_Set-6, instance=Long_Side-1, generate
 76,  90,   1
*Elset, elset=s_Set-6, instance="Short Side-1", generate
 31,  36,   1
*Elset, elset=s_Set-6, instance=Long_Side-2, generate
 76,  90,   1
*Nset, nset=s_Set-9, instance="Short Side-1", generate
  1,  49,   1
*Elset, elset=s_Set-9, instance="Short Side-1", generate
  1,  36,   1
*Nset, nset=s_Set-10, instance=Long_Side-1, generate
  16,  112,   16
*Elset, elset=s_Set-10, instance=Long_Side-1, generate
 15,  90,  15
*Nset, nset=s_Set-12, instance=Long_Side-2, generate
  1,  97,  16
*Elset, elset=s_Set-12, instance=Long_Side-2, generate
  1,  76,  15
*Nset, nset=s_Set-13, instance="Short Side-1", generate
  7,  49,   7
*Elset, elset=s_Set-13, instance="Short Side-1", generate
  6,  36,   6
*Nset, nset=s_Set-14, instance=Long_Side-1, generate
   1,  112,    1
*Nset, nset=s_Set-14, instance="Short Side-1", generate
  1,  49,   1
*Nset, nset=s_Set-14, instance=Long_Side-2, generate
   1,  112,    1
*Nset, nset=s_Set-14, instance="Short Side With Holes-1", generate
   1,  102,    1
*Elset, elset=s_Set-14, instance=Long_Side-1, generate
  1,  90,   1
*Elset, elset=s_Set-14, instance="Short Side-1", generate
  1,  36,   1
*Elset, elset=s_Set-14, instance=Long_Side-2, generate
  1,  90,   1
*Elset, elset=s_Set-14, instance="Short Side With Holes-1", generate
  1,  85,   1
*Nset, nset=s_Set-15, instance="Short Side-1", generate
  1,  49,   1
*Elset, elset=s_Set-15, instance="Short Side-1", generate
  1,  36,   1
*Nset, nset=s_Set-17, instance=Long_Side-1, generate
   1,  112,    1
*Nset, nset=s_Set-17, instance="Short Side-1", generate
  1,  49,   1
*Nset, nset=s_Set-17, instance=Long_Side-2, generate
   1,  112,    1
*Elset, elset=s_Set-17, instance=Long_Side-1, generate
  1,  90,   1
*Elset, elset=s_Set-17, instance="Short Side-1", generate
  1,  36,   1
*Elset, elset=s_Set-17, instance=Long_Side-2, generate
  1,  90,   1
*Nset, nset=s_Set-19, instance=Cap-1, generate
   1,  162,    1
*Elset, elset=s_Set-19, instance=Cap-1, generate
   1,  136,    1
*Nset, nset=s_Set-21, instance=Long_Side-1, generate
   1,  112,    1
*Nset, nset=s_Set-21, instance="Short Side-1", generate
  1,  49,   1
*Nset, nset=s_Set-21, instance=Long_Side-2, generate
   1,  112,    1
*Nset, nset=s_Set-21, instance="Short Side With Holes-1", generate
   1,  102,    1
*Elset, elset=s_Set-21, instance=Long_Side-1, generate
  1,  90,   1
*Elset, elset=s_Set-21, instance="Short Side-1", generate
  1,  36,   1
*Elset, elset=s_Set-21, instance=Long_Side-2, generate
  1,  90,   1
*Elset, elset=s_Set-21, instance="Short Side With Holes-1", generate
  1,  85,   1
*Nset, nset=s_Set-22, instance=Long_Side-1, generate
   1,  112,    1
*Nset, nset=s_Set-22, instance=Long_Side-2, generate
   1,  112,    1
*Elset, elset=s_Set-22, instance=Long_Side-1, generate
  1,  90,   1
*Elset, elset=s_Set-22, instance=Long_Side-2, generate
  1,  90,   1
*Elset, elset=_Bottom_master_surface_SNEG, internal, instance=Bottom-1, generate
  1,  60,   1
*Surface, type=ELEMENT, name=Bottom_master_surface
_Bottom_master_surface_SNEG, SNEG
*Elset, elset="_Side 1 slave surface_", internal, instance=Long_Side-1, generate
  1,  90,   1
*Elset, elset="_Side 1 slave surface_", internal, instance="Short Side-1", generate
  1,  36,   1
*Elset, elset="_Side 1 slave surface_", internal, instance=Long_Side-2, generate
  1,  90,   1
*Elset, elset="_Side 1 slave surface_", internal, instance="Short Side With Holes-1", generate
  1,  85,   1
*Surface, type=ELEMENT, name="Side 1 slave surface"
"_Side 1 slave surface_", 
*Elset, elset=_Side_Pressure_Surface_SPOS, internal, instance=Long_Side-1, generate
  1,  90,   1
*Elset, elset=_Side_Pressure_Surface_SPOS, internal, instance=Long_Side-2, generate
  1,  90,   1
*Elset, elset=_Side_Pressure_Surface_SNEG, internal, instance="Short Side-1", generate
  1,  36,   1
*Elset, elset=_Side_Pressure_Surface_SNEG, internal, instance="Short Side With Holes-1", generate
  1,  85,   1
*Surface, type=ELEMENT, name=Side_Pressure_Surface
_Side_Pressure_Surface_SPOS, SPOS
_Side_Pressure_Surface_SNEG, SNEG
*Elset, elset=_Surf-13_SNEG, internal, instance=Long_Side-2, generate
  1,  90,   1
*Surface, type=ELEMENT, name=Surf-13
_Surf-13_SNEG, SNEG
*Elset, elset=_Surf-14_SPOS, internal, instance="Short Side-1", generate
  1,  36,   1
*Surface, type=ELEMENT, name=Surf-14
_Surf-14_SPOS, SPOS
*Elset, elset=_Surf-15_SPOS, internal, instance=Cap-1, generate
  47,  136,    1
*Surface, type=ELEMENT, name=Surf-15
_Surf-15_SPOS, SPOS
*Elset, elset=_Surf-39_SNEG, internal, instance=Bottom-1, generate
 31,  60,   1
*Surface, type=ELEMENT, name=Surf-39
_Surf-39_SNEG, SNEG
*Elset, elset=_m_Surf-31_, internal, instance="Short Side-1", generate
  1,  36,   1
*Elset, elset=_m_Surf-31_, internal, instance="Short Side With Holes-1", generate
  1,  85,   1
*Surface, type=ELEMENT, name=m_Surf-31
_m_Surf-31_, 
*Elset, elset=_m_Surf-37_, internal, instance=Bottom-1, generate
  1,  60,   1
*Surface, type=ELEMENT, name=m_Surf-37
_m_Surf-37_, 
*Elset, elset=_m_Surf-45_SNEG, internal, instance="Short Side-1", generate
  1,  36,   1
*Surface, type=ELEMENT, name=m_Surf-45
_m_Surf-45_SNEG, SNEG
*Elset, elset=_m_Surf-47_, internal, instance=Cap-1, generate
   1,  136,    1
*Surface, type=ELEMENT, name=m_Surf-47
_m_Surf-47_, 
*Elset, elset=_s_Surf-31_, internal, instance=Long_Side-1, generate
  1,  90,   1
*Elset, elset=_s_Surf-31_, internal, instance=Long_Side-2, generate
  1,  90,   1
*Surface, type=ELEMENT, name=s_Surf-31
_s_Surf-31_, 
*Elset, elset=_s_Surf-37_, internal, instance=Long_Side-1, generate
  1,  90,   1
*Elset, elset=_s_Surf-37_, internal, instance="Short Side-1", generate
  1,  36,   1
*Elset, elset=_s_Surf-37_, internal, instance=Long_Side-2, generate
  1,  90,   1
*Elset, elset=_s_Surf-37_, internal, instance="Short Side With Holes-1", generate
  1,  85,   1
*Surface, type=ELEMENT, name=s_Surf-37
_s_Surf-37_, 
*Elset, elset=_s_Surf-45_SPOS, internal, instance=Long_Side-1, generate
  1,  90,   1
*Elset, elset=_s_Surf-45_SPOS, internal, instance=Long_Side-2, generate
  1,  90,   1
*Surface, type=ELEMENT, name=s_Surf-45
_s_Surf-45_SPOS, SPOS
*Elset, elset=_s_Surf-47_, internal, instance=Long_Side-1, generate
  1,  90,   1
*Elset, elset=_s_Surf-47_, internal, instance="Short Side-1", generate
  1,  36,   1
*Elset, elset=_s_Surf-47_, internal, instance=Long_Side-2, generate
  1,  90,   1
*Elset, elset=_s_Surf-47_, internal, instance="Short Side With Holes-1", generate
  1,  85,   1
*Surface, type=ELEMENT, name=s_Surf-47
_s_Surf-47_, 
*Surface, type=NODE, name=Bottom-1_Bottom_Plate_CNS_, internal
Bottom-1.Bottom_Plate, 1.
*Surface, type=NODE, name=s_Set-14_CNS_, internal
s_Set-14, 1.
*Surface, type=NODE, name=m_Set-22_CNS_, internal
m_Set-22, 1.
*Surface, type=NODE, name=s_Set-22_CNS_, internal
s_Set-22, 1.
** Constraint: Bottom to Sides
*Tie, name="Bottom to Sides", adjust=yes, no rotation
s_Set-14_CNS_, Bottom-1_Bottom_Plate_CNS_
** Constraint: Cap to sides
*Tie, name="Cap to sides", adjust=yes, no rotation
s_Surf-47, m_Surf-47
** Constraint: Constraint-8
*Tie, name=Constraint-8, adjust=yes, no rotation
s_Set-22_CNS_, m_Set-22_CNS_
** Constraint: Sides to sides
*Tie, name="Sides to sides", adjust=yes, no rotation
s_Surf-45, m_Surf-45
*End Assembly
** 
** MATERIALS
** 
*Material, name=Aluminum-6061
*Density
2710.,
*Elastic
 7e+10, 0.33
*Material, name=Steel
*Density
7850.,
*Elastic
 2e+11, 0.3
** 
** INTERACTION PROPERTIES
** 
*Surface Interaction, name=IntProp-1
1.,
*Friction
0.,
** 
** INTERACTIONS
** 
** Interaction: Bottom to sides 1
*Contact Pair, interaction=IntProp-1, type=SURFACE TO SURFACE
"Side 1 slave surface", Bottom_master_surface
** Interaction: Sides to Cap
*Contact Pair, interaction=IntProp-1, type=SURFACE TO SURFACE
s_Surf-37, m_Surf-37
** Interaction: Sides to sides
*Contact Pair, interaction=IntProp-1, type=SURFACE TO SURFACE
s_Surf-31, m_Surf-31
** ----------------------------------------------------------------
** 
** STEP: Step-1
** 
*Step, name=Step-1, nlgeom=NO
*Static
1., 1., 1e-05, 1.
** 
** BOUNDARY CONDITIONS
** 
** Name: BC-1 Type: Displacement/Rotation
*Boundary
Set-8, 1, 1
Set-8, 2, 2
Set-8, 3, 3
** 
** LOADS
** 
** Name: Bottom_Pressure   Type: Pressure
*Dsload
Surf-39, P, 102000.
** Name: Cap_Pressure   Type: Pressure
*Dsload
Surf-15, P, 102000.
** Name: Sides_Pressure   Type: Pressure
*Dsload
Side_Pressure_Surface, P, 102000.
** 
** OUTPUT REQUESTS
** 
*Restart, write, frequency=0
** 
** FIELD OUTPUT: F-Output-1
** 
*Output, field, variable=PRESELECT
** 
** HISTORY OUTPUT: H-Output-1
** 
*Output, history, variable=PRESELECT
*End Step
