*Heading
** Job name: Pressure_Box_With_Holes Model name: Model-1
** Generated by: Abaqus/CAE 2019
*Preprint, echo=NO, model=NO, history=NO, contact=NO
**
** PARTS
**
*Part, name=Bolt
*Node
      1, 0.00499999989, -0.0375000015,           0.
      2, 0.00499999989, -0.0254313592,           0.
      3, 0.0149999997, -0.0254313592,           0.
      4, 0.0149999997, -0.0125513589,           0.
      5, 0.00499999989, -0.0125513589,           0.
      6, 0.00499999989,  0.013248641,           0.
      7, 0.0149999997,  0.013248641,           0.
      8, 0.0149999997, 0.0261286404,           0.
      9, 0.00353553379, -0.0375000015, 0.00353553379
     10,           0., -0.0375000015, 0.00499999989
     11, -0.00353553379, -0.0375000015, 0.00353553379
     12, -0.00499999989, -0.0375000015,           0.
     13, -0.00353553379, -0.0375000015, -0.00353553379
     14,           0., -0.0375000015, -0.00499999989
     15, 0.00353553379, -0.0375000015, -0.00353553379
     16, 0.00499999989, -0.0314656794,           0.
     17, 0.00353553379, -0.0254313592, 0.00353553379
     18,           0., -0.0254313592, 0.00499999989
     19, -0.00353553379, -0.0254313592, 0.00353553379
     20, -0.00499999989, -0.0254313592,           0.
** ... 3184 like lines cut
*Element, type=C3D10
   1,   30,  327,  145,  166,  504,  503,  502,  506,  505,  507
   2,  327,   29,  166,   30,  509,  508,  505,  504,  510,  506
   3,  327,  328,  143,  137,  513,  512,  511,  515,  514,  516
   4,  327,  328,  137,  145,  513,  514,  515,  503,  517,  518
   5,  328,  166,  145,  327,  519,  507,  517,  513,  505,  503
   6,  145,  329,  330,  328,  522,  521,  520,  517,  523,  524
   7,  331,  166,  328,  327,  526,  519,  525,  527,  505,  513
   8,  166,  184,  331,  328,  529,  528,  526,  519,  530,  525
   9,  332,  333,  297,  334,  533,  532,  531,  535,  534,  536
  10,  310,  335,  313,  332,  539,  538,  537,  541,  540,  542
  11,  182,  336,  164,  337,  545,  544,  543,  547,  546,  548
  12,  338,  298,  104,  313,  551,  550,  549,  553,  552,  554
  13,  235,   79,  339,   80,  557,  556,  555,  559,  558,  560
  14,  332,  335,  338,  333,  540,  562,  561,  533,  563,  564
  15,  340,  252,  272,   92,  567,  566,  565,  569,  568,  570
  16,  340,   92,  271,   93,  569,  572,  571,  574,  573,  575
  17,  271,  256,  341,   93,  578,  577,  576,  575,  579,  580
  18,  342,  340,  272,  343,  582,  565,  581,  584,  583,  585
  19,  341,  271,  343,  344,  576,  587,  586,  589,  588,  590
  20,  341,   93,  340,  271,  580,  574,  591,  576,  575,  571
** ... 1859 like lines cut
*Nset, nset=All_Bolt, generate
    1,  3204,     1
*Elset, elset=All_Bolt, generate
    1,  1879,     1
** Section: Solid_Steel
*Solid Section, elset=All_Bolt, material=Steel
,
*End Part
**  
*Part, name=Bottom
*Node
      1, -0.225641027, 0.0355132446,           0.
      2, -0.225641012, 0.0105132433,           0.
      3,  0.149358973, 0.0105132433,           0.
      4,  0.524358988, 0.0105132433,           0.
      5,  0.524358988, 0.0355132446,           0.
      6, -0.225641027,  0.340513229,           0.
      7, -0.250641018,  0.340374351,           0.
      8, -0.250641018,  0.188013241,           0.
      9, -0.250641018, 0.0105132433,           0.
     10,  0.549358964,  0.340374351,           0.
     11,  0.524358988,  0.340513229,           0.
     12,  0.549358964,  0.188013241,           0.
     13,  0.549358964, 0.0105132433,           0.
     14,  0.149358973,  0.340513229,           0.
     15,  0.149358973,  0.365513235,           0.
     16, -0.250641018,  0.365513235,           0.
     17,  0.549358964,  0.365513235,           0.
     18, -0.200641036, 0.0105132433,           0.
     19, -0.175641015, 0.0105132433,           0.
     20, -0.150641024, 0.0105132433,           0.
** ... 475 like lines cut
*Element, type=S4R
 1,   1,   2,  18,  74
 2,  74,  18,  19,  73
 3,  73,  19,  20,  72
 4,  72,  20,  21,  71
 5,  71,  21,  22,  70
 6,  70,  22,  23,  69
 7,  69,  23,  24,  68
 8,  68,  24,  25,  67
 9,  67,  25,  26,  66
10,  66,  26,  27,  65
11,  65,  27,  28,  64
12,  64,  28,  29,  63
13,  63,  29,  30,  62
14,  62,  30,  31,  61
15,  61,  31,   3,  60
16,  60,   3,  32,  59
17,  59,  32,  33,  58
18,  58,  33,  34,  57
19,  57,  34,  35,  56
20,  56,  35,  36,  55
** ... 428 like lines cut
*Nset, nset=Bottom_Plate, generate
   1,  495,    1
*Elset, elset=Bottom_Plate, generate
   1,  448,    1
*Elset, elset=_Bottom_Pressure_Surface_SNEG, internal, generate
  89,  448,    1
*Surface, type=ELEMENT, name=Bottom_Pressure_Surface
_Bottom_Pressure_Surface_SNEG, SNEG
** Section: Bottom_Section
*Shell Section, elset=Bottom_Plate, material=Steel
0.013, 5
*End Part
**  
*Part, name=Cap
*Node
      1,  0.038759999, -0.038759999, 0.0126999998
      2,  0.038759999, -0.343760014, 0.0126999998
      3,  0.788760006, -0.343760014, 0.0126999998
      4,  0.788760006, -0.038759999, 0.0126999998
      5,  0.038759999, -0.343760014,           0.
      6,  0.788760006, -0.343760014,           0.
      7,  0.788760006, -0.038759999,           0.
      8,  0.038759999, -0.038759999,           0.
      9,  0.444828033, -0.362849981,           0.
     10,  0.023352772, -0.0216230657,           0.
     11,  0.019304594, -0.0829615891,           0.
     12, 0.0187908579, -0.151858628,           0.
     13, 0.0952613577, -0.0168147832,           0.
     14,  0.166372001, -0.0158628207,           0.
     15,  0.239261523, -0.0190597959,           0.
     16,  0.310851634, -0.0178693049,           0.
     17,   0.38269195, -0.019670032,           0.
     18,  0.804167211, -0.0216230657,           0.
     19,   0.80821538, -0.0829615891,           0.
     20,  0.808729112, -0.151858628,           0.
** ... 8624 like lines cut
*Element, type=C3D8R
   1,    8,  326, 3637,  431,    1,   89, 1417,  296
   2,  326,  325, 3638, 3637,   89,   90, 1418, 1417
   3,  325,  324, 3639, 3638,   90,   91, 1419, 1418
   4,  324,  323, 3640, 3639,   91,   92, 1420, 1419
   5,  323,  322, 3641, 3640,   92,   93, 1421, 1420
   6,  322,  321, 3642, 3641,   93,   94, 1422, 1421
   7,  321,  320, 3643, 3642,   94,   95, 1423, 1422
   8,  320,  319, 3644, 3643,   95,   96, 1424, 1423
   9,  319,  318, 3645, 3644,   96,   97, 1425, 1424
  10,  318,  317, 3646, 3645,   97,   98, 1426, 1425
  11,  317,  316, 3647, 3646,   98,   99, 1427, 1426
  12,  316,  315, 3648, 3647,   99,  100, 1428, 1427
  13,  315,  314, 3649, 3648,  100,  101, 1429, 1428
  14,  314,  313, 3650, 3649,  101,  102, 1430, 1429
  15,  313,  312, 3651, 3650,  102,  103, 1431, 1430
  16,  312,  311, 3652, 3651,  103,  104, 1432, 1431
  17,  311,  310, 3653, 3652,  104,  105, 1433, 1432
  18,  310,  309, 3654, 3653,  105,  106, 1434, 1433
  19,  309,  308, 3655, 3654,  106,  107, 1435, 1434
  20,  308,  307, 3656, 3655,  107,  108, 1436, 1435
** ... 3994 like lines cut
*Element, type=C3D6
2326,  644, 6152, 6098, 1100, 7546, 7492
2327, 7129, 7171, 7044, 8523, 8565, 8438
2328, 6133,  654, 6979, 7527, 1110, 8373
2329,   29, 6406, 7129,   69, 7800, 8523
2330, 6013,   31,  665, 7407,   71, 1121
2331,  726,  725, 6168, 1182, 1181, 7562
2332, 5956, 6222, 6393, 7350, 7616, 7787
2333, 6029, 6607, 6659, 7423, 8001, 8053
2334,  713, 7068, 6132, 1169, 8462, 7526
2335, 6812, 6434, 7128, 8206, 7828, 8522
2336, 6917, 5984, 7196, 8311, 7378, 8590
2337, 6182, 6381, 6438, 7576, 7775, 7832
2338, 5989, 6180, 6623, 7383, 7574, 8017
2339, 6682, 6708, 6780, 8076, 8102, 8174
2340, 6248, 6578,   20, 7642, 7972,   60
2341,  570, 6317,  571, 1026, 7711, 1027
2342, 6071, 6284, 6424, 7465, 7678, 7818
2343, 6401, 6169, 6541, 7795, 7563, 7935
2344, 6063, 6608, 6660, 7457, 8002, 8054
2345,   13, 7003,  533,   53, 8397,  989
** ... 162 like lines cut
*Nset, nset=Cap, generate
    1,  8644,     1
*Elset, elset=Cap, generate
    1,  4196,     1
** Section: Solid_Aluminum
*Solid Section, elset=Cap, material=Aluminum-6061
,
*End Part
**  
*Part, name=Flange
*Node
      1,   0.44678086,  -0.36745283,           0.
      2,  0.451743484, -0.368063092,           0.
      3,   0.45475328, -0.364070445,           0.
      4,  0.452800453, -0.359467566,           0.
      5,   0.44783783, -0.358857334,           0.
      6,  0.444828033, -0.362849981,           0.
      7, 0.0234261397, -0.0166236032,           0.
      8, 0.0191331636, -0.0140603334,           0.
      9, 0.0147668188, -0.0164965261,           0.
     10, 0.0146934502, -0.0214959867,           0.
     11, 0.0189864263, -0.0240592565,           0.
     12,  0.023352772, -0.0216230657,           0.
     13, 0.0148572605, -0.0852465928,           0.
     14, 0.0146124614, -0.0902405977,           0.
     15, 0.0188149959, -0.092949599,           0.
     16, 0.0232623294, -0.0906646028,           0.
     17, 0.0235071294, -0.0856705979,           0.
     18,  0.019304594, -0.0829615891,           0.
     19, 0.0146014681, -0.154587924,           0.
     20, 0.0148704052, -0.159580678,           0.
** ... 2466 like lines cut
*Element, type=C3D6
  1,    4,  317,  348, 1247, 1560, 1591
  2,  346,  381,  991, 1589, 1624, 2234
  3,  364, 1173,  521, 1607, 2416, 1764
  4,  347,  858,  214, 1590, 2101, 1457
  5, 1040,  212, 1039, 2283, 1455, 2282
  6,  628,  489,  863, 1871, 1732, 2106
  7,   25,  415,   26, 1268, 1658, 1269
  8,   14,   13,  281, 1257, 1256, 1524
  9,  281,  282,  436, 1524, 1525, 1679
 10,   56,  957,  952, 1299, 2200, 2195
 11,  798,  248,  801, 2041, 1491, 2044
 12,   53,   52,  806, 1296, 1295, 2049
 13,  106,  234,  342, 1349, 1477, 1585
 14,  109,  842,  353, 1352, 2085, 1596
 15,  284,  362,  465, 1527, 1605, 1708
 16,  823,  384,  822, 2066, 1627, 2065
 17,  461,  230,  830, 1704, 1473, 2073
 18,  414,  323,  453, 1657, 1566, 1696
 19, 1178,  229,  725, 2421, 1472, 1968
 20,  105,  234,  106, 1348, 1477, 1349
** ... 476 like lines cut
*Element, type=C3D8R
 497,  432,    3,    2,  761, 1675, 1246, 1245, 2004
 498,  425,  196,  195,  349, 1668, 1439, 1438, 1592
 499,  329,  397,  286,    6, 1572, 1640, 1529, 1249
 500,  158,  364,  521,  869, 1401, 1607, 1764, 2112
 501,  148,  489,  450,  149, 1391, 1732, 1693, 1392
 502,  146,  145,  860,  861, 1389, 1388, 2103, 2104
 503,  146,  861,  599,  393, 1389, 2104, 1842, 1636
 504,   17,  775,  776,   18, 1260, 2018, 2019, 1261
 505,  418, 1104,  566,  776, 1661, 2347, 1809, 2019
 506,   11,  429,  768,  372, 1254, 1672, 2011, 1615
 507,  395,  321,    7,   12, 1638, 1564, 1250, 1255
 508,  782,   27,   26,  344, 2025, 1270, 1269, 1587
 509,    7,  764,  314,    8, 1250, 2007, 1557, 1251
 510,  782,  344,  720,  649, 2025, 1587, 1963, 1892
 511,  554,  476,  305,  484, 1797, 1719, 1548, 1727
 512,   34,   33,  375,  306, 1277, 1276, 1618, 1549
 513,  476,  931,  236,  998, 1719, 2174, 1479, 2241
 514,  313,  784,   29,   28, 1556, 2027, 1272, 1271
 515,  965,  771,  769,  770, 2208, 2014, 2012, 2013
 516, 1159,  772, 1129, 1160, 2402, 2015, 2372, 2403
** ... 866 like lines cut
*Nset, nset=All_Flange, generate
    1,  2486,     1
*Elset, elset=All_Flange, generate
    1,  1382,     1
** Section: Solid_Steel
*Solid Section, elset=All_Flange, material=Steel
,
*End Part
**  
*Part, name=Long_Side
*Node
      1,           0.,           0.,           0.
      2, 0.0500000007,           0.,           0.
      3,  0.100000001,           0.,           0.
      4,  0.150000006,           0.,           0.
      5,  0.200000003,           0.,           0.
      6,         0.25,           0.,           0.
      7,  0.300000012,           0.,           0.
      8,  0.349999994,           0.,           0.
      9,  0.400000006,           0.,           0.
     10,  0.449999988,           0.,           0.
     11,          0.5,           0.,           0.
     12,  0.550000012,           0.,           0.
     13,  0.600000024,           0.,           0.
     14,  0.649999976,           0.,           0.
     15,  0.699999988,           0.,           0.
     16,         0.75,           0.,           0.
     17,           0., 0.0508333333,           0.
     18, 0.0500000007, 0.0508333333,           0.
     19,  0.100000001, 0.0508333333,           0.
     20,  0.150000006, 0.0508333333,           0.
** ... 92 like lines cut
*Element, type=S4R
 1,   1,   2,  18,  17
 2,   2,   3,  19,  18
 3,   3,   4,  20,  19
 4,   4,   5,  21,  20
 5,   5,   6,  22,  21
 6,   6,   7,  23,  22
 7,   7,   8,  24,  23
 8,   8,   9,  25,  24
 9,   9,  10,  26,  25
10,  10,  11,  27,  26
11,  11,  12,  28,  27
12,  12,  13,  29,  28
13,  13,  14,  30,  29
14,  14,  15,  31,  30
15,  15,  16,  32,  31
16,  17,  18,  34,  33
17,  18,  19,  35,  34
18,  19,  20,  36,  35
19,  20,  21,  37,  36
20,  21,  22,  38,  37
** ... 70 like lines cut
*Nset, nset="Long Side", generate
   1,  112,    1
*Elset, elset="Long Side", generate
  1,  90,   1
** Section: Bottom_Section
*Shell Section, elset="Long Side", material=Steel
0.013, 5
*End Part
**  
*Part, name="Short Side"
*Node
      1,           0.,           0.,           0.
      2, 0.0254166666,           0.,           0.
      3, 0.0508333333,           0.,           0.
      4, 0.0762500018,           0.,           0.
      5,  0.101666667,           0.,           0.
      6,  0.127083331,           0.,           0.
      7,  0.152500004,           0.,           0.
      8,  0.177916661,           0.,           0.
      9,  0.203333333,           0.,           0.
     10,  0.228750005,           0.,           0.
     11,  0.254166663,           0.,           0.
     12,  0.279583335,           0.,           0.
     13,  0.305000007,           0.,           0.
     14,           0., 0.0254166666,           0.
     15, 0.0254166666, 0.0254166666,           0.
     16, 0.0508333333, 0.0254166666,           0.
     17, 0.0762500018, 0.0254166666,           0.
     18,  0.101666667, 0.0254166666,           0.
     19,  0.127083331, 0.0254166666,           0.
     20,  0.152500004, 0.0254166666,           0.
** ... 149 like lines cut
*Element, type=S4R
  1,   1,   2,  15,  14
  2,   2,   3,  16,  15
  3,   3,   4,  17,  16
  4,   4,   5,  18,  17
  5,   5,   6,  19,  18
  6,   6,   7,  20,  19
  7,   7,   8,  21,  20
  8,   8,   9,  22,  21
  9,   9,  10,  23,  22
 10,  10,  11,  24,  23
 11,  11,  12,  25,  24
 12,  12,  13,  26,  25
 13,  14,  15,  28,  27
 14,  15,  16,  29,  28
 15,  16,  17,  30,  29
 16,  17,  18,  31,  30
 17,  18,  19,  32,  31
 18,  19,  20,  33,  32
 19,  20,  21,  34,  33
 20,  21,  22,  35,  34
** ... 124 like lines cut
*Nset, nset=Side, generate
   1,  169,    1
*Elset, elset=Side, generate
   1,  144,    1
** Section: Bottom_Section
*Shell Section, elset=Side, material=Steel
0.013, 5
*End Part
**  
*Part, name="Short Side With Holes"
*Node
      1,  0.229641616,  0.146339595,           0.
      2,  0.226780325,  0.165568188,           0.
      3,  0.211160406,  0.177141622,           0.
      4,  0.191931814,  0.174280316,           0.
      5,   0.18035838,  0.158660412,           0.
      6,  0.183219686,  0.139431804,           0.
      7,   0.19883959,  0.127858385,           0.
      8,  0.218068197,  0.130719677,           0.
      9,  0.125400007,  0.152500004,           0.
     10,  0.117960513,  0.170460507,           0.
     11,  0.100000001,  0.177900001,           0.
     12, 0.0820394903,  0.170460507,           0.
     13, 0.0746000037,  0.152500004,           0.
     14, 0.0820394903,  0.134539485,           0.
     15,  0.100000001,  0.127100006,           0.
     16,  0.117960513,  0.134539485,           0.
     17,  0.305000007,           0.,           0.
     18,           0.,           0.,           0.
     19,  0.305000007,  0.305000007,           0.
     20,           0.,  0.305000007,           0.
** ... 82 like lines cut
*Element, type=S3
1,   4,  54,   5
2,  56,  93,  42
3,  54,  51,   5
4,  79,  68, 101
*Element, type=S4R
 5,  28,  56,  80,  29
 6,  56,  28,  27,  77
 7,  71,  67,  65,  41
 8,  51,  55,   6,   5
 9,  14,  94,  48,  15
10,  57,  76,  71,  41
11,  61, 102,  81,  59
12,  95,  97,  38, 102
13,  12,  11,  96,  44
14,  44,  74,  92,  97
15,   4,  62,  66,  54
16,  46,  11,  10,  64
17,  98,  69,  46,  64
18,  63,  45,  77,  75
19,  93,   2,   1,  42
20,  65,  52,   9,  16
21,  47,  53,  51,  54
22,  53,   9,  52,  51
23,  17,  30,  82,  21
24,  70,   7,  58,  73
** ... 61 like lines cut
*Nset, nset=Side, generate
   1,  102,    1
*Elset, elset=Side, generate
  1,  85,   1
** Section: Bottom_Section
*Shell Section, elset=Side, material=Steel
0.013, 5
*End Part
**  
**
** ASSEMBLY
**
*Assembly, name=Assembly
**  
*Instance, name=Long_Side-1, part=Long_Side
-0.0037497179251359, 0.268125243233336,    -0.268125
-0.0037497179251359, 0.268125243233336,    -0.268125, 0.996250294762916, 0.268125243233336,    -0.268125, 89.9999992730282
*End Instance
**  
*Instance, name="Short Side-1", part="Short Side"
-0.0037497179251359, -0.0368747567666645,    -0.268125
-0.0037497179251359, -0.0368747567666645,    -0.268125, -0.0037497179251359, -1.03687476945472,    -0.268125, 89.9999992730282
*End Instance
**  
*Instance, name=Long_Side-2, part=Long_Side
-0.00374971792513592, -0.0368747567666646,     0.036875
-0.00374971792513592, -0.0368747567666646,     0.036875, -1.00374973061319, -0.0368747567666647,     0.036875, 89.9999992730282
*End Instance
**  
*Instance, name=Bottom-1, part=Bottom
0.221891307715888,    -0.072388,     0.036875
*End Instance
**  
*Instance, name="Short Side With Holes-1", part="Short Side With Holes"
0.746250282074864, -0.0368747567666645,    -0.268125
0.746250282074864, -0.0368747567666645,    -0.268125, 0.746250282074864, -1.03687476945472,    -0.268125, 89.9999992730282
*End Instance
**  
*Instance, name=Flange-1, part=Flange
-0.0425097179251354, 0.306885243233335,    -0.268125
*End Instance
**  
*Instance, name=Cap-1, part=Cap
-0.0425097179251355, 0.306885243233335,    -0.280825
*End Instance
**  
*Instance, name=Bolt-1, part=Bolt
-0.0234499224884713, -0.056574961330001, -0.267576358686982
-0.0234499224884713, -0.056574961330001, -0.267576358686982, -1.02344993517652, -0.056574961330001, -0.267576358686982, 89.9999992730282
*End Instance
**  
*Instance, name=Bolt-2, part=Bolt
0.6224826684582, -0.0565749613300003, -0.267576358686982
0.6224826684582, -0.0565749613300003, -0.267576358686982, -0.377517344229852, -0.0565749613300003, -0.267576358686982, 89.9999992730282
*End Instance
**  
*Instance, name=Bolt-3, part=Bolt
-0.0234499224884714, 0.287825447796671, -0.267576358686982
-0.0234499224884714, 0.287825447796671, -0.267576358686982, -1.02344993517652, 0.287825447796671, -0.267576358686982, 89.9999992730282
*End Instance
**  
*Instance, name=Bolt-4, part=Bolt
0.7659504866382, 0.28782544779667, -0.267576358686982
0.7659504866382, 0.28782544779667, -0.267576358686982, -0.234049526049852, 0.28782544779667, -0.267576358686982, 89.9999992730282
*End Instance
**  
*Instance, name=Bolt-5, part=Bolt
0.6942165775482, 0.28782544779667, -0.267576358686982
0.6942165775482, 0.28782544779667, -0.267576358686982, -0.305783435139852, 0.28782544779667, -0.267576358686982, 89.9999992730282
*End Instance
**  
*Instance, name=Bolt-6, part=Bolt
0.7659504866382, 0.21892964779667, -0.267576358686982
0.7659504866382, 0.21892964779667, -0.267576358686982, -0.234049526049852, 0.21892964779667, -0.267576358686982, 89.9999992730282
*End Instance
**  
*Instance, name=Bolt-7, part=Bolt
0.7659504866382, 0.15003384779667, -0.267576358686982
0.7659504866382, 0.15003384779667, -0.267576358686982, -0.234049526049852, 0.15003384779667, -0.267576358686982, 89.9999992730282
*End Instance
**  
*Instance, name=Bolt-8, part=Bolt
0.7659504866382, 0.0812166386700001, -0.267576358686982
0.7659504866382, 0.0812166386700001, -0.267576358686982, -0.234049526049852, 0.0812166386700001, -0.267576358686982, 89.9999992730282
*End Instance
**  
*Instance, name=Bolt-9, part=Bolt
0.7659504866382, 0.0123208386700001, -0.267576358686982
0.7659504866382, 0.0123208386700001, -0.267576358686982, -0.234049526049852, 0.0123208386700001, -0.267576358686982, 89.9999992730282
*End Instance
**  
*Instance, name=Bolt-10, part=Bolt
0.7659504866382, -0.0565749613299998, -0.267576358686982
0.7659504866382, -0.0565749613299998, -0.267576358686982, -0.234049526049852, -0.0565749613299998, -0.267576358686982, 89.9999992730282
*End Instance
**  
*Instance, name=Bolt-11, part=Bolt
0.6942165775482, -0.0565749613300001, -0.267576358686982
0.6942165775482, -0.0565749613300001, -0.267576358686982, -0.305783435139852, -0.0565749613300001, -0.267576358686982, 89.9999992730282
*End Instance
**  
*Instance, name=Bolt-12, part=Bolt
0.4072809411882, -0.0565749613300009, -0.267576358686982
0.4072809411882, -0.0565749613300009, -0.267576358686982, -0.592719071499852, -0.0565749613300009, -0.267576358686982, 89.9999992730282
*End Instance
**  
*Instance, name=Bolt-13, part=Bolt
0.335219622961529, -0.056574961330001, -0.267576358686982
0.335219622961529, -0.056574961330001, -0.267576358686982, -0.664780389726523, -0.056574961330001, -0.267576358686982, 89.9999992730282
*End Instance
**  
*Instance, name=Bolt-14, part=Bolt
0.263485713871528, -0.056574961330001, -0.267576358686982
0.263485713871528, -0.056574961330001, -0.267576358686982, -0.736514298816524, -0.056574961330001, -0.267576358686982, 89.9999992730282
*End Instance
**  
*Instance, name=Bolt-15, part=Bolt
0.191751804781529, -0.056574961330001, -0.267576358686982
0.191751804781529, -0.056574961330001, -0.267576358686982, -0.808248207906524, -0.056574961330001, -0.267576358686982, 89.9999992730282
*End Instance
**  
*Instance, name=Bolt-16, part=Bolt
0.120017895691529, -0.056574961330001, -0.267576358686982
0.120017895691529, -0.056574961330001, -0.267576358686982, -0.879982116996524, -0.056574961330001, -0.267576358686982, 89.9999992730282
*End Instance
**  
*Instance, name=Bolt-17, part=Bolt
0.0482839866015286, -0.056574961330001, -0.267576358686982
0.0482839866015286, -0.056574961330001, -0.267576358686982, -0.951716026086524, -0.056574961330001, -0.267576358686982, 89.9999992730282
*End Instance
**  
*Instance, name=Bolt-18, part=Bolt
0.622482668458201, 0.28782544779667, -0.267576358686982
0.622482668458201, 0.28782544779667, -0.267576358686982, -0.377517344229852, 0.28782544779667, -0.267576358686982, 89.9999992730282
*End Instance
**  
*Instance, name=Bolt-19, part=Bolt
0.550748759368201, 0.28782544779667, -0.267576358686982
0.550748759368201, 0.28782544779667, -0.267576358686982, -0.449251253319852, 0.28782544779667, -0.267576358686982, 89.9999992730282
*End Instance
**  
*Instance, name=Bolt-20, part=Bolt
0.4790148502782, -0.0565749613300007, -0.267576358686982
0.4790148502782, -0.0565749613300007, -0.267576358686982, -0.520985162409852, -0.0565749613300007, -0.267576358686982, 89.9999992730282
*End Instance
**  
*Instance, name=Bolt-21, part=Bolt
0.5507487593682, -0.0565749613300005, -0.267576358686982
0.5507487593682, -0.0565749613300005, -0.267576358686982, -0.449251253319852, -0.0565749613300005, -0.267576358686982, 89.9999992730282
*End Instance
**  
*Instance, name=Bolt-22, part=Bolt
0.4790148502782, 0.287825447796671, -0.267576358686982
0.4790148502782, 0.287825447796671, -0.267576358686982, -0.520985162409852, 0.287825447796671, -0.267576358686982, 89.9999992730282
*End Instance
**  
*Instance, name=Bolt-23, part=Bolt
0.4072809411882, 0.287825447796671, -0.267576358686982
0.4072809411882, 0.287825447796671, -0.267576358686982, -0.592719071499852, 0.287825447796671, -0.267576358686982, 89.9999992730282
*End Instance
**  
*Instance, name=Bolt-24, part=Bolt
0.335219622961529, 0.287825447796671, -0.267576358686982
0.335219622961529, 0.287825447796671, -0.267576358686982, -0.664780389726524, 0.287825447796671, -0.267576358686982, 89.9999992730282
*End Instance
**  
*Instance, name=Bolt-25, part=Bolt
0.263485713871529, 0.287825447796671, -0.267576358686982
0.263485713871529, 0.287825447796671, -0.267576358686982, -0.736514298816524, 0.287825447796671, -0.267576358686982, 89.9999992730282
*End Instance
**  
*Instance, name=Bolt-26, part=Bolt
0.191751804781529, 0.287825447796671, -0.267576358686982
0.191751804781529, 0.287825447796671, -0.267576358686982, -0.808248207906523, 0.287825447796671, -0.267576358686982, 89.9999992730282
*End Instance
**  
*Instance, name=Bolt-27, part=Bolt
0.120017895691528, 0.287825447796671, -0.267576358686982
0.120017895691528, 0.287825447796671, -0.267576358686982, -0.879982116996524, 0.287825447796671, -0.267576358686982, 89.9999992730282
*End Instance
**  
*Instance, name=Bolt-28, part=Bolt
0.0482839866015283, 0.287825447796671, -0.267576358686982
0.0482839866015283, 0.287825447796671, -0.267576358686982, -0.951716026086524, 0.287825447796671, -0.267576358686982, 89.9999992730282
*End Instance
**  
*Instance, name=Bolt-29, part=Bolt
-0.0234499224884713, 0.012320838669999, -0.267576358686982
-0.0234499224884713, 0.012320838669999, -0.267576358686982, -1.02344993517652, 0.012320838669999, -0.267576358686982, 89.9999992730282
*End Instance
**  
*Instance, name=Bolt-30, part=Bolt
-0.0234499224884714, 0.081216638669999, -0.267576358686982
-0.0234499224884714, 0.081216638669999, -0.267576358686982, -1.02344993517652, 0.081216638669999, -0.267576358686982, 89.9999992730282
*End Instance
**  
*Instance, name=Bolt-31, part=Bolt
-0.0234499224884713, 0.150033847796671, -0.267576358686982
-0.0234499224884713, 0.150033847796671, -0.267576358686982, -1.02344993517652, 0.150033847796671, -0.267576358686982, 89.9999992730282
*End Instance
**  
*Instance, name=Bolt-32, part=Bolt
-0.0234499224884713, 0.218929647796671, -0.267576358686982
-0.0234499224884713, 0.218929647796671, -0.267576358686982, -1.02344993517652, 0.218929647796671, -0.267576358686982, 89.9999992730282
*End Instance
**  
*Nset, nset="Bottom Mounting Edges", instance=Bottom-1
   2,   3,   4,   7,   8,   9,  10,  12,  13,  15,  16,  17,  18,  19,  20,  21
  22,  23,  24,  25,  26,  27,  28,  29,  30,  31,  32,  33,  34,  35,  36,  37
  38,  39,  40,  41,  42,  43,  44,  45,  75,  76,  77,  78,  79,  80,  81,  82
  83,  84,  85, 108, 109, 110, 111, 112, 113, 114, 115, 116, 117, 118, 119, 120
 121, 122, 123, 124, 125, 126, 127, 128, 129, 130, 131, 132, 133, 162, 163, 164
 165, 166, 167, 168, 169, 170, 171, 172, 173, 174, 175, 176
*Elset, elset="Bottom Mounting Edges", instance=Bottom-1, generate
  1,  88,   1
*Nset, nset=Bottom_Edges_Interaction, instance=Long_Side-1, generate
  1,  16,   1
*Nset, nset=Bottom_Edges_Interaction, instance="Short Side-1", generate
  1,  13,   1
*Nset, nset=Bottom_Edges_Interaction, instance=Long_Side-2, generate
  1,  16,   1
*Elset, elset=Bottom_Edges_Interaction, instance=Long_Side-1, generate
  1,  15,   1
*Elset, elset=Bottom_Edges_Interaction, instance="Short Side-1", generate
  1,  12,   1
*Elset, elset=Bottom_Edges_Interaction, instance=Long_Side-2, generate
  1,  15,   1
*Nset, nset=Mounting_Edges, instance=Bottom-1
   2,   3,   4,   7,   8,   9,  10,  12,  13,  15,  16,  17,  18,  19,  20,  21
  22,  23,  24,  25,  26,  27,  28,  29,  30,  31,  32,  33,  34,  35,  36,  37
  38,  39,  40,  41,  42,  43,  44,  45,  75,  76,  77,  78,  79,  80,  81,  82
  83,  84,  85, 108, 109, 110, 111, 112, 113, 114, 115, 116, 117, 118, 119, 120
 121, 122, 123, 124, 125, 126, 127, 128, 129, 130, 131, 132, 133, 162, 163, 164
 165, 166, 167, 168, 169, 170, 171, 172, 173, 174, 175, 176
*Elset, elset=Mounting_Edges, instance=Bottom-1, generate
  1,  88,   1
*Nset, nset=m_Set-15, instance=Long_Side-1, generate
   1,  112,    1
*Nset, nset=m_Set-15, instance=Long_Side-2, generate
   1,  112,    1
*Elset, elset=m_Set-15, instance=Long_Side-1, generate
  1,  90,   1
*Elset, elset=m_Set-15, instance=Long_Side-2, generate
  1,  90,   1
*Nset, nset=m_Set-22, instance="Short Side-1", generate
   1,  169,    1
*Nset, nset=m_Set-22, instance="Short Side With Holes-1", generate
   1,  102,    1
*Elset, elset=m_Set-22, instance="Short Side-1", generate
   1,  144,    1
*Elset, elset=m_Set-22, instance="Short Side With Holes-1", generate
  1,  85,   1
*Nset, nset=s_Set-2, instance=Long_Side-1, generate
   1,  112,    1
*Nset, nset=s_Set-2, instance=Long_Side-2, generate
   1,  112,    1
*Elset, elset=s_Set-2, instance=Long_Side-1, generate
  1,  90,   1
*Elset, elset=s_Set-2, instance=Long_Side-2, generate
  1,  90,   1
*Nset, nset=s_Set-4, instance=Long_Side-1, generate
  1,  97,  16
*Nset, nset=s_Set-4, instance=Long_Side-2, generate
  1,  97,  16
*Elset, elset=s_Set-4, instance=Long_Side-1, generate
  1,  76,  15
*Elset, elset=s_Set-4, instance=Long_Side-2, generate
  1,  76,  15
*Nset, nset=s_Set-5, instance=Long_Side-1, generate
  16,  112,   16
*Nset, nset=s_Set-5, instance=Long_Side-2, generate
  16,  112,   16
*Elset, elset=s_Set-5, instance=Long_Side-1, generate
 15,  90,  15
*Elset, elset=s_Set-5, instance=Long_Side-2, generate
 15,  90,  15
*Nset, nset=s_Set-6, instance=Long_Side-1, generate
  97,  112,    1
*Nset, nset=s_Set-6, instance="Short Side-1", generate
 157,  169,    1
*Nset, nset=s_Set-6, instance=Long_Side-2, generate
  97,  112,    1
*Elset, elset=s_Set-6, instance=Long_Side-1, generate
 76,  90,   1
*Elset, elset=s_Set-6, instance="Short Side-1", generate
 133,  144,    1
*Elset, elset=s_Set-6, instance=Long_Side-2, generate
 76,  90,   1
*Nset, nset=s_Set-9, instance="Short Side-1", generate
   1,  169,    1
*Elset, elset=s_Set-9, instance="Short Side-1", generate
   1,  144,    1
*Nset, nset=s_Set-10, instance=Long_Side-1, generate
  16,  112,   16
*Elset, elset=s_Set-10, instance=Long_Side-1, generate
 15,  90,  15
*Nset, nset=s_Set-12, instance=Long_Side-2, generate
  1,  97,  16
*Elset, elset=s_Set-12, instance=Long_Side-2, generate
  1,  76,  15
*Nset, nset=s_Set-13, instance="Short Side-1", generate
  13,  169,   13
*Elset, elset=s_Set-13, instance="Short Side-1", generate
  12,  144,   12
*Nset, nset=s_Set-14, instance=Long_Side-1, generate
   1,  112,    1
*Nset, nset=s_Set-14, instance="Short Side-1", generate
   1,  169,    1
*Nset, nset=s_Set-14, instance=Long_Side-2, generate
   1,  112,    1
*Nset, nset=s_Set-14, instance="Short Side With Holes-1", generate
   1,  102,    1
*Elset, elset=s_Set-14, instance=Long_Side-1, generate
  1,  90,   1
*Elset, elset=s_Set-14, instance="Short Side-1", generate
   1,  144,    1
*Elset, elset=s_Set-14, instance=Long_Side-2, generate
  1,  90,   1
*Elset, elset=s_Set-14, instance="Short Side With Holes-1", generate
  1,  85,   1
*Nset, nset=s_Set-15, instance="Short Side-1", generate
   1,  169,    1
*Elset, elset=s_Set-15, instance="Short Side-1", generate
   1,  144,    1
*Nset, nset=s_Set-17, instance=Long_Side-1, generate
   1,  112,    1
*Nset, nset=s_Set-17, instance="Short Side-1", generate
   1,  169,    1
*Nset, nset=s_Set-17, instance=Long_Side-2, generate
   1,  112,    1
*Elset, elset=s_Set-17, instance=Long_Side-1, generate
  1,  90,   1
*Elset, elset=s_Set-17, instance="Short Side-1", generate
   1,  144,    1
*Elset, elset=s_Set-17, instance=Long_Side-2, generate
  1,  90,   1
*Nset, nset=s_Set-21, instance=Long_Side-1, generate
   1,  112,    1
*Nset, nset=s_Set-21, instance="Short Side-1", generate
   1,  169,    1
*Nset, nset=s_Set-21, instance=Long_Side-2, generate
   1,  112,    1
*Nset, nset=s_Set-21, instance="Short Side With Holes-1", generate
   1,  102,    1
*Elset, elset=s_Set-21, instance=Long_Side-1, generate
  1,  90,   1
*Elset, elset=s_Set-21, instance="Short Side-1", generate
   1,  144,    1
*Elset, elset=s_Set-21, instance=Long_Side-2, generate
  1,  90,   1
*Elset, elset=s_Set-21, instance="Short Side With Holes-1", generate
  1,  85,   1
*Nset, nset=s_Set-22, instance=Long_Side-1, generate
   1,  112,    1
*Nset, nset=s_Set-22, instance=Long_Side-2, generate
   1,  112,    1
*Elset, elset=s_Set-22, instance=Long_Side-1, generate
  1,  90,   1
*Elset, elset=s_Set-22, instance=Long_Side-2, generate
  1,  90,   1
*Elset, elset=_All_Sides_SPOS, internal, instance=Long_Side-1, generate
  1,  90,   1
*Elset, elset=_All_Sides_SPOS, internal, instance="Short Side-1", generate
   1,  144,    1
*Elset, elset=_All_Sides_SPOS, internal, instance=Long_Side-2, generate
  1,  90,   1
*Elset, elset=_All_Sides_SPOS, internal, instance="Short Side With Holes-1", generate
  1,  85,   1
*Surface, type=ELEMENT, name=All_Sides
_All_Sides_SPOS, SPOS
*Elset, elset=_Bolt_Flange_Slave_Surface_S3, internal, instance=Bolt-1
   30,   33,   38,   47,   50,   63,  223,  227,  228,  371,  445,  447,  480,  486,  536,  683
  685,  908,  978, 1083, 1086, 1087, 1096, 1528, 1532, 1550, 1560, 1571, 1574, 1583, 1586, 1587
 1597, 1609, 1628, 1635, 1647, 1659, 1662, 1674, 1691, 1703, 1708, 1722, 1724, 1742, 1789, 1812
 1816, 1833, 1849, 1852, 1858
*Elset, elset=_Bolt_Flange_Slave_Surface_S3, internal, instance=Bolt-2
   30,   33,   38,   47,   50,   63,  223,  227,  228,  371,  445,  447,  480,  486,  536,  683
  685,  908,  978, 1083, 1086, 1087, 1096, 1528, 1532, 1550, 1560, 1571, 1574, 1583, 1586, 1587
 1597, 1609, 1628, 1635, 1647, 1659, 1662, 1674, 1691, 1703, 1708, 1722, 1724, 1742, 1789, 1812
 1816, 1833, 1849, 1852, 1858
*Elset, elset=_Bolt_Flange_Slave_Surface_S3, internal, instance=Bolt-30
   30,   33,   38,   47,   50,   63,  223,  227,  228,  371,  445,  447,  480,  486,  536,  683
  685,  908,  978, 1083, 1086, 1087, 1096, 1528, 1532, 1550, 1560, 1571, 1574, 1583, 1586, 1587
 1597, 1609, 1628, 1635, 1647, 1659, 1662, 1674, 1691, 1703, 1708, 1722, 1724, 1742, 1789, 1812
 1816, 1833, 1849, 1852, 1858
*Elset, elset=_Bolt_Flange_Slave_Surface_S3, internal, instance=Bolt-32
   30,   33,   38,   47,   50,   63,  223,  227,  228,  371,  445,  447,  480,  486,  536,  683
  685,  908,  978, 1083, 1086, 1087, 1096, 1528, 1532, 1550, 1560, 1571, 1574, 1583, 1586, 1587
 1597, 1609, 1628, 1635, 1647, 1659, 1662, 1674, 1691, 1703, 1708, 1722, 1724, 1742, 1789, 1812
 1816, 1833, 1849, 1852, 1858
*Elset, elset=_Bolt_Flange_Slave_Surface_S3, internal, instance=Bolt-29
   30,   33,   38,   47,   50,   63,  223,  227,  228,  371,  445,  447,  480,  486,  536,  683
  685,  908,  978, 1083, 1086, 1087, 1096, 1528, 1532, 1550, 1560, 1571, 1574, 1583, 1586, 1587
 1597, 1609, 1628, 1635, 1647, 1659, 1662, 1674, 1691, 1703, 1708, 1722, 1724, 1742, 1789, 1812
 1816, 1833, 1849, 1852, 1858
*Elset, elset=_Bolt_Flange_Slave_Surface_S3, internal, instance=Bolt-31
   30,   33,   38,   47,   50,   63,  223,  227,  228,  371,  445,  447,  480,  486,  536,  683
  685,  908,  978, 1083, 1086, 1087, 1096, 1528, 1532, 1550, 1560, 1571, 1574, 1583, 1586, 1587
 1597, 1609, 1628, 1635, 1647, 1659, 1662, 1674, 1691, 1703, 1708, 1722, 1724, 1742, 1789, 1812
 1816, 1833, 1849, 1852, 1858
*Elset, elset=_Bolt_Flange_Slave_Surface_S3, internal, instance=Bolt-3
   30,   33,   38,   47,   50,   63,  223,  227,  228,  371,  445,  447,  480,  486,  536,  683
  685,  908,  978, 1083, 1086, 1087, 1096, 1528, 1532, 1550, 1560, 1571, 1574, 1583, 1586, 1587
 1597, 1609, 1628, 1635, 1647, 1659, 1662, 1674, 1691, 1703, 1708, 1722, 1724, 1742, 1789, 1812
 1816, 1833, 1849, 1852, 1858
*Elset, elset=_Bolt_Flange_Slave_Surface_S3, internal, instance=Bolt-4
   30,   33,   38,   47,   50,   63,  223,  227,  228,  371,  445,  447,  480,  486,  536,  683
  685,  908,  978, 1083, 1086, 1087, 1096, 1528, 1532, 1550, 1560, 1571, 1574, 1583, 1586, 1587
 1597, 1609, 1628, 1635, 1647, 1659, 1662, 1674, 1691, 1703, 1708, 1722, 1724, 1742, 1789, 1812
 1816, 1833, 1849, 1852, 1858
*Elset, elset=_Bolt_Flange_Slave_Surface_S3, internal, instance=Bolt-8
   30,   33,   38,   47,   50,   63,  223,  227,  228,  371,  445,  447,  480,  486,  536,  683
  685,  908,  978, 1083, 1086, 1087, 1096, 1528, 1532, 1550, 1560, 1571, 1574, 1583, 1586, 1587
 1597, 1609, 1628, 1635, 1647, 1659, 1662, 1674, 1691, 1703, 1708, 1722, 1724, 1742, 1789, 1812
 1816, 1833, 1849, 1852, 1858
*Elset, elset=_Bolt_Flange_Slave_Surface_S3, internal, instance=Bolt-17
   30,   33,   38,   47,   50,   63,  223,  227,  228,  371,  445,  447,  480,  486,  536,  683
  685,  908,  978, 1083, 1086, 1087, 1096, 1528, 1532, 1550, 1560, 1571, 1574, 1583, 1586, 1587
 1597, 1609, 1628, 1635, 1647, 1659, 1662, 1674, 1691, 1703, 1708, 1722, 1724, 1742, 1789, 1812
 1816, 1833, 1849, 1852, 1858
*Elset, elset=_Bolt_Flange_Slave_Surface_S3, internal, instance=Bolt-28
   30,   33,   38,   47,   50,   63,  223,  227,  228,  371,  445,  447,  480,  486,  536,  683
  685,  908,  978, 1083, 1086, 1087, 1096, 1528, 1532, 1550, 1560, 1571, 1574, 1583, 1586, 1587
 1597, 1609, 1628, 1635, 1647, 1659, 1662, 1674, 1691, 1703, 1708, 1722, 1724, 1742, 1789, 1812
 1816, 1833, 1849, 1852, 1858
*Elset, elset=_Bolt_Flange_Slave_Surface_S3, internal, instance=Bolt-13
   30,   33,   38,   47,   50,   63,  223,  227,  228,  371,  445,  447,  480,  486,  536,  683
  685,  908,  978, 1083, 1086, 1087, 1096, 1528, 1532, 1550, 1560, 1571, 1574, 1583, 1586, 1587
 1597, 1609, 1628, 1635, 1647, 1659, 1662, 1674, 1691, 1703, 1708, 1722, 1724, 1742, 1789, 1812
 1816, 1833, 1849, 1852, 1858
*Elset, elset=_Bolt_Flange_Slave_Surface_S3, internal, instance=Bolt-24
   30,   33,   38,   47,   50,   63,  223,  227,  228,  371,  445,  447,  480,  486,  536,  683
  685,  908,  978, 1083, 1086, 1087, 1096, 1528, 1532, 1550, 1560, 1571, 1574, 1583, 1586, 1587
 1597, 1609, 1628, 1635, 1647, 1659, 1662, 1674, 1691, 1703, 1708, 1722, 1724, 1742, 1789, 1812
 1816, 1833, 1849, 1852, 1858
*Elset, elset=_Bolt_Flange_Slave_Surface_S3, internal, instance=Bolt-21
   30,   33,   38,   47,   50,   63,  223,  227,  228,  371,  445,  447,  480,  486,  536,  683
  685,  908,  978, 1083, 1086, 1087, 1096, 1528, 1532, 1550, 1560, 1571, 1574, 1583, 1586, 1587
 1597, 1609, 1628, 1635, 1647, 1659, 1662, 1674, 1691, 1703, 1708, 1722, 1724, 1742, 1789, 1812
 1816, 1833, 1849, 1852, 1858
*Elset, elset=_Bolt_Flange_Slave_Surface_S3, internal, instance=Bolt-6
   30,   33,   38,   47,   50,   63,  223,  227,  228,  371,  445,  447,  480,  486,  536,  683
  685,  908,  978, 1083, 1086, 1087, 1096, 1528, 1532, 1550, 1560, 1571, 1574, 1583, 1586, 1587
 1597, 1609, 1628, 1635, 1647, 1659, 1662, 1674, 1691, 1703, 1708, 1722, 1724, 1742, 1789, 1812
 1816, 1833, 1849, 1852, 1858
*Elset, elset=_Bolt_Flange_Slave_Surface_S3, internal, instance=Bolt-10
   30,   33,   38,   47,   50,   63,  223,  227,  228,  371,  445,  447,  480,  486,  536,  683
  685,  908,  978, 1083, 1086, 1087, 1096, 1528, 1532, 1550, 1560, 1571, 1574, 1583, 1586, 1587
 1597, 1609, 1628, 1635, 1647, 1659, 1662, 1674, 1691, 1703, 1708, 1722, 1724, 1742, 1789, 1812
 1816, 1833, 1849, 1852, 1858
*Elset, elset=_Bolt_Flange_Slave_Surface_S3, internal, instance=Bolt-22
   30,   33,   38,   47,   50,   63,  223,  227,  228,  371,  445,  447,  480,  486,  536,  683
  685,  908,  978, 1083, 1086, 1087, 1096, 1528, 1532, 1550, 1560, 1571, 1574, 1583, 1586, 1587
 1597, 1609, 1628, 1635, 1647, 1659, 1662, 1674, 1691, 1703, 1708, 1722, 1724, 1742, 1789, 1812
 1816, 1833, 1849, 1852, 1858
*Elset, elset=_Bolt_Flange_Slave_Surface_S3, internal, instance=Bolt-19
   30,   33,   38,   47,   50,   63,  223,  227,  228,  371,  445,  447,  480,  486,  536,  683
  685,  908,  978, 1083, 1086, 1087, 1096, 1528, 1532, 1550, 1560, 1571, 1574, 1583, 1586, 1587
 1597, 1609, 1628, 1635, 1647, 1659, 1662, 1674, 1691, 1703, 1708, 1722, 1724, 1742, 1789, 1812
 1816, 1833, 1849, 1852, 1858
*Elset, elset=_Bolt_Flange_Slave_Surface_S3, internal, instance=Bolt-15
   30,   33,   38,   47,   50,   63,  223,  227,  228,  371,  445,  447,  480,  486,  536,  683
  685,  908,  978, 1083, 1086, 1087, 1096, 1528, 1532, 1550, 1560, 1571, 1574, 1583, 1586, 1587
 1597, 1609, 1628, 1635, 1647, 1659, 1662, 1674, 1691, 1703, 1708, 1722, 1724, 1742, 1789, 1812
 1816, 1833, 1849, 1852, 1858
*Elset, elset=_Bolt_Flange_Slave_Surface_S3, internal, instance=Bolt-26
   30,   33,   38,   47,   50,   63,  223,  227,  228,  371,  445,  447,  480,  486,  536,  683
  685,  908,  978, 1083, 1086, 1087, 1096, 1528, 1532, 1550, 1560, 1571, 1574, 1583, 1586, 1587
 1597, 1609, 1628, 1635, 1647, 1659, 1662, 1674, 1691, 1703, 1708, 1722, 1724, 1742, 1789, 1812
 1816, 1833, 1849, 1852, 1858
*Elset, elset=_Bolt_Flange_Slave_Surface_S3, internal, instance=Bolt-5
   30,   33,   38,   47,   50,   63,  223,  227,  228,  371,  445,  447,  480,  486,  536,  683
  685,  908,  978, 1083, 1086, 1087, 1096, 1528, 1532, 1550, 1560, 1571, 1574, 1583, 1586, 1587
 1597, 1609, 1628, 1635, 1647, 1659, 1662, 1674, 1691, 1703, 1708, 1722, 1724, 1742, 1789, 1812
 1816, 1833, 1849, 1852, 1858
*Elset, elset=_Bolt_Flange_Slave_Surface_S3, internal, instance=Bolt-9
   30,   33,   38,   47,   50,   63,  223,  227,  228,  371,  445,  447,  480,  486,  536,  683
  685,  908,  978, 1083, 1086, 1087, 1096, 1528, 1532, 1550, 1560, 1571, 1574, 1583, 1586, 1587
 1597, 1609, 1628, 1635, 1647, 1659, 1662, 1674, 1691, 1703, 1708, 1722, 1724, 1742, 1789, 1812
 1816, 1833, 1849, 1852, 1858
*Elset, elset=_Bolt_Flange_Slave_Surface_S3, internal, instance=Bolt-18
   30,   33,   38,   47,   50,   63,  223,  227,  228,  371,  445,  447,  480,  486,  536,  683
  685,  908,  978, 1083, 1086, 1087, 1096, 1528, 1532, 1550, 1560, 1571, 1574, 1583, 1586, 1587
 1597, 1609, 1628, 1635, 1647, 1659, 1662, 1674, 1691, 1703, 1708, 1722, 1724, 1742, 1789, 1812
 1816, 1833, 1849, 1852, 1858
*Elset, elset=_Bolt_Flange_Slave_Surface_S3, internal, instance=Bolt-14
   30,   33,   38,   47,   50,   63,  223,  227,  228,  371,  445,  447,  480,  486,  536,  683
  685,  908,  978, 1083, 1086, 1087, 1096, 1528, 1532, 1550, 1560, 1571, 1574, 1583, 1586, 1587
 1597, 1609, 1628, 1635, 1647, 1659, 1662, 1674, 1691, 1703, 1708, 1722, 1724, 1742, 1789, 1812
 1816, 1833, 1849, 1852, 1858
*Elset, elset=_Bolt_Flange_Slave_Surface_S3, internal, instance=Bolt-25
   30,   33,   38,   47,   50,   63,  223,  227,  228,  371,  445,  447,  480,  486,  536,  683
  685,  908,  978, 1083, 1086, 1087, 1096, 1528, 1532, 1550, 1560, 1571, 1574, 1583, 1586, 1587
 1597, 1609, 1628, 1635, 1647, 1659, 1662, 1674, 1691, 1703, 1708, 1722, 1724, 1742, 1789, 1812
 1816, 1833, 1849, 1852, 1858
*Elset, elset=_Bolt_Flange_Slave_Surface_S3, internal, instance=Bolt-7
   30,   33,   38,   47,   50,   63,  223,  227,  228,  371,  445,  447,  480,  486,  536,  683
  685,  908,  978, 1083, 1086, 1087, 1096, 1528, 1532, 1550, 1560, 1571, 1574, 1583, 1586, 1587
 1597, 1609, 1628, 1635, 1647, 1659, 1662, 1674, 1691, 1703, 1708, 1722, 1724, 1742, 1789, 1812
 1816, 1833, 1849, 1852, 1858
*Elset, elset=_Bolt_Flange_Slave_Surface_S3, internal, instance=Bolt-11
   30,   33,   38,   47,   50,   63,  223,  227,  228,  371,  445,  447,  480,  486,  536,  683
  685,  908,  978, 1083, 1086, 1087, 1096, 1528, 1532, 1550, 1560, 1571, 1574, 1583, 1586, 1587
 1597, 1609, 1628, 1635, 1647, 1659, 1662, 1674, 1691, 1703, 1708, 1722, 1724, 1742, 1789, 1812
 1816, 1833, 1849, 1852, 1858
*Elset, elset=_Bolt_Flange_Slave_Surface_S3, internal, instance=Bolt-12
   30,   33,   38,   47,   50,   63,  223,  227,  228,  371,  445,  447,  480,  486,  536,  683
  685,  908,  978, 1083, 1086, 1087, 1096, 1528, 1532, 1550, 1560, 1571, 1574, 1583, 1586, 1587
 1597, 1609, 1628, 1635, 1647, 1659, 1662, 1674, 1691, 1703, 1708, 1722, 1724, 1742, 1789, 1812
 1816, 1833, 1849, 1852, 1858
*Elset, elset=_Bolt_Flange_Slave_Surface_S3, internal, instance=Bolt-23
   30,   33,   38,   47,   50,   63,  223,  227,  228,  371,  445,  447,  480,  486,  536,  683
  685,  908,  978, 1083, 1086, 1087, 1096, 1528, 1532, 1550, 1560, 1571, 1574, 1583, 1586, 1587
 1597, 1609, 1628, 1635, 1647, 1659, 1662, 1674, 1691, 1703, 1708, 1722, 1724, 1742, 1789, 1812
 1816, 1833, 1849, 1852, 1858
*Elset, elset=_Bolt_Flange_Slave_Surface_S3, internal, instance=Bolt-20
   30,   33,   38,   47,   50,   63,  223,  227,  228,  371,  445,  447,  480,  486,  536,  683
  685,  908,  978, 1083, 1086, 1087, 1096, 1528, 1532, 1550, 1560, 1571, 1574, 1583, 1586, 1587
 1597, 1609, 1628, 1635, 1647, 1659, 1662, 1674, 1691, 1703, 1708, 1722, 1724, 1742, 1789, 1812
 1816, 1833, 1849, 1852, 1858
*Elset, elset=_Bolt_Flange_Slave_Surface_S3, internal, instance=Bolt-16
   30,   33,   38,   47,   50,   63,  223,  227,  228,  371,  445,  447,  480,  486,  536,  683
  685,  908,  978, 1083, 1086, 1087, 1096, 1528, 1532, 1550, 1560, 1571, 1574, 1583, 1586, 1587
 1597, 1609, 1628, 1635, 1647, 1659, 1662, 1674, 1691, 1703, 1708, 1722, 1724, 1742, 1789, 1812
 1816, 1833, 1849, 1852, 1858
*Elset, elset=_Bolt_Flange_Slave_Surface_S3, internal, instance=Bolt-27
   30,   33,   38,   47,   50,   63,  223,  227,  228,  371,  445,  447,  480,  486,  536,  683
  685,  908,  978, 1083, 1086, 1087, 1096, 1528, 1532, 1550, 1560, 1571, 1574, 1583, 1586, 1587
 1597, 1609, 1628, 1635, 1647, 1659, 1662, 1674, 1691, 1703, 1708, 1722, 1724, 1742, 1789, 1812
 1816, 1833, 1849, 1852, 1858
*Elset, elset=_Bolt_Flange_Slave_Surface_S4, internal, instance=Bolt-1
   39,  185,  186, 1309, 1531, 1563, 1879
*Elset, elset=_Bolt_Flange_Slave_Surface_S4, internal, instance=Bolt-2
   39,  185,  186, 1309, 1531, 1563, 1879
*Elset, elset=_Bolt_Flange_Slave_Surface_S4, internal, instance=Bolt-30
   39,  185,  186, 1309, 1531, 1563, 1879
*Elset, elset=_Bolt_Flange_Slave_Surface_S4, internal, instance=Bolt-32
   39,  185,  186, 1309, 1531, 1563, 1879
*Elset, elset=_Bolt_Flange_Slave_Surface_S4, internal, instance=Bolt-29
   39,  185,  186, 1309, 1531, 1563, 1879
*Elset, elset=_Bolt_Flange_Slave_Surface_S4, internal, instance=Bolt-31
   39,  185,  186, 1309, 1531, 1563, 1879
*Elset, elset=_Bolt_Flange_Slave_Surface_S4, internal, instance=Bolt-3
   39,  185,  186, 1309, 1531, 1563, 1879
*Elset, elset=_Bolt_Flange_Slave_Surface_S4, internal, instance=Bolt-4
   39,  185,  186, 1309, 1531, 1563, 1879
*Elset, elset=_Bolt_Flange_Slave_Surface_S4, internal, instance=Bolt-8
   39,  185,  186, 1309, 1531, 1563, 1879
*Elset, elset=_Bolt_Flange_Slave_Surface_S4, internal, instance=Bolt-17
   39,  185,  186, 1309, 1531, 1563, 1879
*Elset, elset=_Bolt_Flange_Slave_Surface_S4, internal, instance=Bolt-28
   39,  185,  186, 1309, 1531, 1563, 1879
*Elset, elset=_Bolt_Flange_Slave_Surface_S4, internal, instance=Bolt-13
   39,  185,  186, 1309, 1531, 1563, 1879
*Elset, elset=_Bolt_Flange_Slave_Surface_S4, internal, instance=Bolt-24
   39,  185,  186, 1309, 1531, 1563, 1879
*Elset, elset=_Bolt_Flange_Slave_Surface_S4, internal, instance=Bolt-21
   39,  185,  186, 1309, 1531, 1563, 1879
*Elset, elset=_Bolt_Flange_Slave_Surface_S4, internal, instance=Bolt-6
   39,  185,  186, 1309, 1531, 1563, 1879
*Elset, elset=_Bolt_Flange_Slave_Surface_S4, internal, instance=Bolt-10
   39,  185,  186, 1309, 1531, 1563, 1879
*Elset, elset=_Bolt_Flange_Slave_Surface_S4, internal, instance=Bolt-22
   39,  185,  186, 1309, 1531, 1563, 1879
*Elset, elset=_Bolt_Flange_Slave_Surface_S4, internal, instance=Bolt-19
   39,  185,  186, 1309, 1531, 1563, 1879
*Elset, elset=_Bolt_Flange_Slave_Surface_S4, internal, instance=Bolt-15
   39,  185,  186, 1309, 1531, 1563, 1879
*Elset, elset=_Bolt_Flange_Slave_Surface_S4, internal, instance=Bolt-26
** ... 153 like lines cut
*Surface, type=ELEMENT, name=Bolt_Flange_Slave_Surface
_Bolt_Flange_Slave_Surface_S3, S3
_Bolt_Flange_Slave_Surface_S4, S4
_Bolt_Flange_Slave_Surface_S2, S2
_Bolt_Flange_Slave_Surface_S1, S1
*Elset, elset=_Bolts_Top_Constraint_Surface_S4, internal, instance=Bolt-1
  114,  128,  499,  559,  752,  817,  849, 1378, 1419, 1423, 1433, 1600
*Elset, elset=_Bolts_Top_Constraint_Surface_S4, internal, instance=Bolt-2
  114,  128,  499,  559,  752,  817,  849, 1378, 1419, 1423, 1433, 1600
*Elset, elset=_Bolts_Top_Constraint_Surface_S4, internal, instance=Bolt-30
  114,  128,  499,  559,  752,  817,  849, 1378, 1419, 1423, 1433, 1600
*Elset, elset=_Bolts_Top_Constraint_Surface_S4, internal, instance=Bolt-32
  114,  128,  499,  559,  752,  817,  849, 1378, 1419, 1423, 1433, 1600
*Elset, elset=_Bolts_Top_Constraint_Surface_S4, internal, instance=Bolt-29
  114,  128,  499,  559,  752,  817,  849, 1378, 1419, 1423, 1433, 1600
*Elset, elset=_Bolts_Top_Constraint_Surface_S4, internal, instance=Bolt-31
  114,  128,  499,  559,  752,  817,  849, 1378, 1419, 1423, 1433, 1600
*Elset, elset=_Bolts_Top_Constraint_Surface_S4, internal, instance=Bolt-3
  114,  128,  499,  559,  752,  817,  849, 1378, 1419, 1423, 1433, 1600
*Elset, elset=_Bolts_Top_Constraint_Surface_S4, internal, instance=Bolt-4
  114,  128,  499,  559,  752,  817,  849, 1378, 1419, 1423, 1433, 1600
*Elset, elset=_Bolts_Top_Constraint_Surface_S4, internal, instance=Bolt-8
  114,  128,  499,  559,  752,  817,  849, 1378, 1419, 1423, 1433, 1600
*Elset, elset=_Bolts_Top_Constraint_Surface_S4, internal, instance=Bolt-17
  114,  128,  499,  559,  752,  817,  849, 1378, 1419, 1423, 1433, 1600
*Elset, elset=_Bolts_Top_Constraint_Surface_S4, internal, instance=Bolt-28
  114,  128,  499,  559,  752,  817,  849, 1378, 1419, 1423, 1433, 1600
*Elset, elset=_Bolts_Top_Constraint_Surface_S4, internal, instance=Bolt-13
  114,  128,  499,  559,  752,  817,  849, 1378, 1419, 1423, 1433, 1600
*Elset, elset=_Bolts_Top_Constraint_Surface_S4, internal, instance=Bolt-24
  114,  128,  499,  559,  752,  817,  849, 1378, 1419, 1423, 1433, 1600
*Elset, elset=_Bolts_Top_Constraint_Surface_S4, internal, instance=Bolt-21
  114,  128,  499,  559,  752,  817,  849, 1378, 1419, 1423, 1433, 1600
*Elset, elset=_Bolts_Top_Constraint_Surface_S4, internal, instance=Bolt-6
  114,  128,  499,  559,  752,  817,  849, 1378, 1419, 1423, 1433, 1600
*Elset, elset=_Bolts_Top_Constraint_Surface_S4, internal, instance=Bolt-10
  114,  128,  499,  559,  752,  817,  849, 1378, 1419, 1423, 1433, 1600
*Elset, elset=_Bolts_Top_Constraint_Surface_S4, internal, instance=Bolt-22
  114,  128,  499,  559,  752,  817,  849, 1378, 1419, 1423, 1433, 1600
*Elset, elset=_Bolts_Top_Constraint_Surface_S4, internal, instance=Bolt-19
  114,  128,  499,  559,  752,  817,  849, 1378, 1419, 1423, 1433, 1600
*Elset, elset=_Bolts_Top_Constraint_Surface_S4, internal, instance=Bolt-15
  114,  128,  499,  559,  752,  817,  849, 1378, 1419, 1423, 1433, 1600
*Elset, elset=_Bolts_Top_Constraint_Surface_S4, internal, instance=Bolt-26
  114,  128,  499,  559,  752,  817,  849, 1378, 1419, 1423, 1433, 1600
** ... 26 like lines cut
 1324, 1331, 1334, 1335, 1339, 1343, 1350, 1355, 1356, 1361, 1364, 1380, 1381, 1386, 1387, 1388
 1394, 1395, 1396, 1399, 1400, 1402, 1403, 1407, 1408, 1411, 1413, 1418, 1421, 1422, 1427, 1428
 1449, 1454, 1458, 1471, 1482, 1491, 1505, 1749, 1760, 1814
*Elset, elset=_Bolts_Top_Constraint_Surface_S3, internal, instance=Bolt-2
  345,  748,  797,  985, 1038, 1075, 1163, 1190, 1250, 1252, 1255, 1283, 1291, 1292, 1293, 1320
 1324, 1331, 1334, 1335, 1339, 1343, 1350, 1355, 1356, 1361, 1364, 1380, 1381, 1386, 1387, 1388
 1394, 1395, 1396, 1399, 1400, 1402, 1403, 1407, 1408, 1411, 1413, 1418, 1421, 1422, 1427, 1428
 1449, 1454, 1458, 1471, 1482, 1491, 1505, 1749, 1760, 1814
*Elset, elset=_Bolts_Top_Constraint_Surface_S3, internal, instance=Bolt-30
  345,  748,  797,  985, 1038, 1075, 1163, 1190, 1250, 1252, 1255, 1283, 1291, 1292, 1293, 1320
 1324, 1331, 1334, 1335, 1339, 1343, 1350, 1355, 1356, 1361, 1364, 1380, 1381, 1386, 1387, 1388
 1394, 1395, 1396, 1399, 1400, 1402, 1403, 1407, 1408, 1411, 1413, 1418, 1421, 1422, 1427, 1428
 1449, 1454, 1458, 1471, 1482, 1491, 1505, 1749, 1760, 1814
*Elset, elset=_Bolts_Top_Constraint_Surface_S3, internal, instance=Bolt-32
  345,  748,  797,  985, 1038, 1075, 1163, 1190, 1250, 1252, 1255, 1283, 1291, 1292, 1293, 1320
 1324, 1331, 1334, 1335, 1339, 1343, 1350, 1355, 1356, 1361, 1364, 1380, 1381, 1386, 1387, 1388
 1394, 1395, 1396, 1399, 1400, 1402, 1403, 1407, 1408, 1411, 1413, 1418, 1421, 1422, 1427, 1428
 1449, 1454, 1458, 1471, 1482, 1491, 1505, 1749, 1760, 1814
*Elset, elset=_Bolts_Top_Constraint_Surface_S3, internal, instance=Bolt-29
  345,  748,  797,  985, 1038, 1075, 1163, 1190, 1250, 1252, 1255, 1283, 1291, 1292, 1293, 1320
 1324, 1331, 1334, 1335, 1339, 1343, 1350, 1355, 1356, 1361, 1364, 1380, 1381, 1386, 1387, 1388
 1394, 1395, 1396, 1399, 1400, 1402, 1403, 1407, 1408, 1411, 1413, 1418, 1421, 1422, 1427, 1428
 1449, 1454, 1458, 1471, 1482, 1491, 1505, 1749, 1760, 1814
*Elset, elset=_Bolts_Top_Constraint_Surface_S3, internal, instance=Bolt-31
  345,  748,  797,  985, 1038, 1075, 1163, 1190, 1250, 1252, 1255, 1283, 1291, 1292, 1293, 1320
 1324, 1331, 1334, 1335, 1339, 1343, 1350, 1355, 1356, 1361, 1364, 1380, 1381, 1386, 1387, 1388
 1394, 1395, 1396, 1399, 1400, 1402, 1403, 1407, 1408, 1411, 1413, 1418, 1421, 1422, 1427, 1428
 1449, 1454, 1458, 1471, 1482, 1491, 1505, 1749, 1760, 1814
*Elset, elset=_Bolts_Top_Constraint_Surface_S3, internal, instance=Bolt-3
  345,  748,  797,  985, 1038, 1075, 1163, 1190, 1250, 1252, 1255, 1283, 1291, 1292, 1293, 1320
 1324, 1331, 1334, 1335, 1339, 1343, 1350, 1355, 1356, 1361, 1364, 1380, 1381, 1386, 1387, 1388
 1394, 1395, 1396, 1399, 1400, 1402, 1403, 1407, 1408, 1411, 1413, 1418, 1421, 1422, 1427, 1428
 1449, 1454, 1458, 1471, 1482, 1491, 1505, 1749, 1760, 1814
*Elset, elset=_Bolts_Top_Constraint_Surface_S3, internal, instance=Bolt-4
  345,  748,  797,  985, 1038, 1075, 1163, 1190, 1250, 1252, 1255, 1283, 1291, 1292, 1293, 1320
 1324, 1331, 1334, 1335, 1339, 1343, 1350, 1355, 1356, 1361, 1364, 1380, 1381, 1386, 1387, 1388
 1394, 1395, 1396, 1399, 1400, 1402, 1403, 1407, 1408, 1411, 1413, 1418, 1421, 1422, 1427, 1428
 1449, 1454, 1458, 1471, 1482, 1491, 1505, 1749, 1760, 1814
*Elset, elset=_Bolts_Top_Constraint_Surface_S3, internal, instance=Bolt-8
  345,  748,  797,  985, 1038, 1075, 1163, 1190, 1250, 1252, 1255, 1283, 1291, 1292, 1293, 1320
 1324, 1331, 1334, 1335, 1339, 1343, 1350, 1355, 1356, 1361, 1364, 1380, 1381, 1386, 1387, 1388
 1394, 1395, 1396, 1399, 1400, 1402, 1403, 1407, 1408, 1411, 1413, 1418, 1421, 1422, 1427, 1428
 1449, 1454, 1458, 1471, 1482, 1491, 1505, 1749, 1760, 1814
*Elset, elset=_Bolts_Top_Constraint_Surface_S3, internal, instance=Bolt-17
  345,  748,  797,  985, 1038, 1075, 1163, 1190, 1250, 1252, 1255, 1283, 1291, 1292, 1293, 1320
 1324, 1331, 1334, 1335, 1339, 1343, 1350, 1355, 1356, 1361, 1364, 1380, 1381, 1386, 1387, 1388
 1394, 1395, 1396, 1399, 1400, 1402, 1403, 1407, 1408, 1411, 1413, 1418, 1421, 1422, 1427, 1428
 1449, 1454, 1458, 1471, 1482, 1491, 1505, 1749, 1760, 1814
*Elset, elset=_Bolts_Top_Constraint_Surface_S3, internal, instance=Bolt-28
  345,  748,  797,  985, 1038, 1075, 1163, 1190, 1250, 1252, 1255, 1283, 1291, 1292, 1293, 1320
 1324, 1331, 1334, 1335, 1339, 1343, 1350, 1355, 1356, 1361, 1364, 1380, 1381, 1386, 1387, 1388
 1394, 1395, 1396, 1399, 1400, 1402, 1403, 1407, 1408, 1411, 1413, 1418, 1421, 1422, 1427, 1428
 1449, 1454, 1458, 1471, 1482, 1491, 1505, 1749, 1760, 1814
*Elset, elset=_Bolts_Top_Constraint_Surface_S3, internal, instance=Bolt-13
  345,  748,  797,  985, 1038, 1075, 1163, 1190, 1250, 1252, 1255, 1283, 1291, 1292, 1293, 1320
 1324, 1331, 1334, 1335, 1339, 1343, 1350, 1355, 1356, 1361, 1364, 1380, 1381, 1386, 1387, 1388
 1394, 1395, 1396, 1399, 1400, 1402, 1403, 1407, 1408, 1411, 1413, 1418, 1421, 1422, 1427, 1428
 1449, 1454, 1458, 1471, 1482, 1491, 1505, 1749, 1760, 1814
*Elset, elset=_Bolts_Top_Constraint_Surface_S3, internal, instance=Bolt-24
  345,  748,  797,  985, 1038, 1075, 1163, 1190, 1250, 1252, 1255, 1283, 1291, 1292, 1293, 1320
 1324, 1331, 1334, 1335, 1339, 1343, 1350, 1355, 1356, 1361, 1364, 1380, 1381, 1386, 1387, 1388
 1394, 1395, 1396, 1399, 1400, 1402, 1403, 1407, 1408, 1411, 1413, 1418, 1421, 1422, 1427, 1428
 1449, 1454, 1458, 1471, 1482, 1491, 1505, 1749, 1760, 1814
*Elset, elset=_Bolts_Top_Constraint_Surface_S3, internal, instance=Bolt-21
  345,  748,  797,  985, 1038, 1075, 1163, 1190, 1250, 1252, 1255, 1283, 1291, 1292, 1293, 1320
 1324, 1331, 1334, 1335, 1339, 1343, 1350, 1355, 1356, 1361, 1364, 1380, 1381, 1386, 1387, 1388
 1394, 1395, 1396, 1399, 1400, 1402, 1403, 1407, 1408, 1411, 1413, 1418, 1421, 1422, 1427, 1428
 1449, 1454, 1458, 1471, 1482, 1491, 1505, 1749, 1760, 1814
*Elset, elset=_Bolts_Top_Constraint_Surface_S3, internal, instance=Bolt-6
  345,  748,  797,  985, 1038, 1075, 1163, 1190, 1250, 1252, 1255, 1283, 1291, 1292, 1293, 1320
 1324, 1331, 1334, 1335, 1339, 1343, 1350, 1355, 1356, 1361, 1364, 1380, 1381, 1386, 1387, 1388
 1394, 1395, 1396, 1399, 1400, 1402, 1403, 1407, 1408, 1411, 1413, 1418, 1421, 1422, 1427, 1428
 1449, 1454, 1458, 1471, 1482, 1491, 1505, 1749, 1760, 1814
*Elset, elset=_Bolts_Top_Constraint_Surface_S3, internal, instance=Bolt-10
  345,  748,  797,  985, 1038, 1075, 1163, 1190, 1250, 1252, 1255, 1283, 1291, 1292, 1293, 1320
 1324, 1331, 1334, 1335, 1339, 1343, 1350, 1355, 1356, 1361, 1364, 1380, 1381, 1386, 1387, 1388
 1394, 1395, 1396, 1399, 1400, 1402, 1403, 1407, 1408, 1411, 1413, 1418, 1421, 1422, 1427, 1428
 1449, 1454, 1458, 1471, 1482, 1491, 1505, 1749, 1760, 1814
*Elset, elset=_Bolts_Top_Constraint_Surface_S3, internal, instance=Bolt-22
  345,  748,  797,  985, 1038, 1075, 1163, 1190, 1250, 1252, 1255, 1283, 1291, 1292, 1293, 1320
 1324, 1331, 1334, 1335, 1339, 1343, 1350, 1355, 1356, 1361, 1364, 1380, 1381, 1386, 1387, 1388
 1394, 1395, 1396, 1399, 1400, 1402, 1403, 1407, 1408, 1411, 1413, 1418, 1421, 1422, 1427, 1428
 1449, 1454, 1458, 1471, 1482, 1491, 1505, 1749, 1760, 1814
*Elset, elset=_Bolts_Top_Constraint_Surface_S3, internal, instance=Bolt-19
  345,  748,  797,  985, 1038, 1075, 1163, 1190, 1250, 1252, 1255, 1283, 1291, 1292, 1293, 1320
 1324, 1331, 1334, 1335, 1339, 1343, 1350, 1355, 1356, 1361, 1364, 1380, 1381, 1386, 1387, 1388
 1394, 1395, 1396, 1399, 1400, 1402, 1403, 1407, 1408, 1411, 1413, 1418, 1421, 1422, 1427, 1428
 1449, 1454, 1458, 1471, 1482, 1491, 1505, 1749, 1760, 1814
*Elset, elset=_Bolts_Top_Constraint_Surface_S3, internal, instance=Bolt-15
  345,  748,  797,  985, 1038, 1075, 1163, 1190, 1250, 1252, 1255, 1283, 1291, 1292, 1293, 1320
 1324, 1331, 1334, 1335, 1339, 1343, 1350, 1355, 1356, 1361, 1364, 1380, 1381, 1386, 1387, 1388
 1394, 1395, 1396, 1399, 1400, 1402, 1403, 1407, 1408, 1411, 1413, 1418, 1421, 1422, 1427, 1428
 1449, 1454, 1458, 1471, 1482, 1491, 1505, 1749, 1760, 1814
*Elset, elset=_Bolts_Top_Constraint_Surface_S3, internal, instance=Bolt-26
  345,  748,  797,  985, 1038, 1075, 1163, 1190, 1250, 1252, 1255, 1283, 1291, 1292, 1293, 1320
 1324, 1331, 1334, 1335, 1339, 1343, 1350, 1355, 1356, 1361, 1364, 1380, 1381, 1386, 1387, 1388
 1394, 1395, 1396, 1399, 1400, 1402, 1403, 1407, 1408, 1411, 1413, 1418, 1421, 1422, 1427, 1428
 1449, 1454, 1458, 1471, 1482, 1491, 1505, 1749, 1760, 1814
*Elset, elset=_Bolts_Top_Constraint_Surface_S3, internal, instance=Bolt-5
  345,  748,  797,  985, 1038, 1075, 1163, 1190, 1250, 1252, 1255, 1283, 1291, 1292, 1293, 1320
 1324, 1331, 1334, 1335, 1339, 1343, 1350, 1355, 1356, 1361, 1364, 1380, 1381, 1386, 1387, 1388
 1394, 1395, 1396, 1399, 1400, 1402, 1403, 1407, 1408, 1411, 1413, 1418, 1421, 1422, 1427, 1428
 1449, 1454, 1458, 1471, 1482, 1491, 1505, 1749, 1760, 1814
*Elset, elset=_Bolts_Top_Constraint_Surface_S3, internal, instance=Bolt-9
  345,  748,  797,  985, 1038, 1075, 1163, 1190, 1250, 1252, 1255, 1283, 1291, 1292, 1293, 1320
 1324, 1331, 1334, 1335, 1339, 1343, 1350, 1355, 1356, 1361, 1364, 1380, 1381, 1386, 1387, 1388
 1394, 1395, 1396, 1399, 1400, 1402, 1403, 1407, 1408, 1411, 1413, 1418, 1421, 1422, 1427, 1428
 1449, 1454, 1458, 1471, 1482, 1491, 1505, 1749, 1760, 1814
*Elset, elset=_Bolts_Top_Constraint_Surface_S3, internal, instance=Bolt-18
  345,  748,  797,  985, 1038, 1075, 1163, 1190, 1250, 1252, 1255, 1283, 1291, 1292, 1293, 1320
 1324, 1331, 1334, 1335, 1339, 1343, 1350, 1355, 1356, 1361, 1364, 1380, 1381, 1386, 1387, 1388
 1394, 1395, 1396, 1399, 1400, 1402, 1403, 1407, 1408, 1411, 1413, 1418, 1421, 1422, 1427, 1428
 1449, 1454, 1458, 1471, 1482, 1491, 1505, 1749, 1760, 1814
*Elset, elset=_Bolts_Top_Constraint_Surface_S3, internal, instance=Bolt-14
  345,  748,  797,  985, 1038, 1075, 1163, 1190, 1250, 1252, 1255, 1283, 1291, 1292, 1293, 1320
 1324, 1331, 1334, 1335, 1339, 1343, 1350, 1355, 1356, 1361, 1364, 1380, 1381, 1386, 1387, 1388
 1394, 1395, 1396, 1399, 1400, 1402, 1403, 1407, 1408, 1411, 1413, 1418, 1421, 1422, 1427, 1428
 1449, 1454, 1458, 1471, 1482, 1491, 1505, 1749, 1760, 1814
*Elset, elset=_Bolts_Top_Constraint_Surface_S3, internal, instance=Bolt-25
  345,  748,  797,  985, 1038, 1075, 1163, 1190, 1250, 1252, 1255, 1283, 1291, 1292, 1293, 1320
 1324, 1331, 1334, 1335, 1339, 1343, 1350, 1355, 1356, 1361, 1364, 1380, 1381, 1386, 1387, 1388
 1394, 1395, 1396, 1399, 1400, 1402, 1403, 1407, 1408, 1411, 1413, 1418, 1421, 1422, 1427, 1428
 1449, 1454, 1458, 1471, 1482, 1491, 1505, 1749, 1760, 1814
*Elset, elset=_Bolts_Top_Constraint_Surface_S3, internal, instance=Bolt-7
  345,  748,  797,  985, 1038, 1075, 1163, 1190, 1250, 1252, 1255, 1283, 1291, 1292, 1293, 1320
 1324, 1331, 1334, 1335, 1339, 1343, 1350, 1355, 1356, 1361, 1364, 1380, 1381, 1386, 1387, 1388
 1394, 1395, 1396, 1399, 1400, 1402, 1403, 1407, 1408, 1411, 1413, 1418, 1421, 1422, 1427, 1428
 1449, 1454, 1458, 1471, 1482, 1491, 1505, 1749, 1760, 1814
*Elset, elset=_Bolts_Top_Constraint_Surface_S3, internal, instance=Bolt-11
  345,  748,  797,  985, 1038, 1075, 1163, 1190, 1250, 1252, 1255, 1283, 1291, 1292, 1293, 1320
 1324, 1331, 1334, 1335, 1339, 1343, 1350, 1355, 1356, 1361, 1364, 1380, 1381, 1386, 1387, 1388
 1394, 1395, 1396, 1399, 1400, 1402, 1403, 1407, 1408, 1411, 1413, 1418, 1421, 1422, 1427, 1428
 1449, 1454, 1458, 1471, 1482, 1491, 1505, 1749, 1760, 1814
*Elset, elset=_Bolts_Top_Constraint_Surface_S3, internal, instance=Bolt-12
  345,  748,  797,  985, 1038, 1075, 1163, 1190, 1250, 1252, 1255, 1283, 1291, 1292, 1293, 1320
 1324, 1331, 1334, 1335, 1339, 1343, 1350, 1355, 1356, 1361, 1364, 1380, 1381, 1386, 1387, 1388
 1394, 1395, 1396, 1399, 1400, 1402, 1403, 1407, 1408, 1411, 1413, 1418, 1421, 1422, 1427, 1428
 1449, 1454, 1458, 1471, 1482, 1491, 1505, 1749, 1760, 1814
*Elset, elset=_Bolts_Top_Constraint_Surface_S3, internal, instance=Bolt-23
  345,  748,  797,  985, 1038, 1075, 1163, 1190, 1250, 1252, 1255, 1283, 1291, 1292, 1293, 1320
 1324, 1331, 1334, 1335, 1339, 1343, 1350, 1355, 1356, 1361, 1364, 1380, 1381, 1386, 1387, 1388
 1394, 1395, 1396, 1399, 1400, 1402, 1403, 1407, 1408, 1411, 1413, 1418, 1421, 1422, 1427, 1428
 1449, 1454, 1458, 1471, 1482, 1491, 1505, 1749, 1760, 1814
*Elset, elset=_Bolts_Top_Constraint_Surface_S3, internal, instance=Bolt-20
  345,  748,  797,  985, 1038, 1075, 1163, 1190, 1250, 1252, 1255, 1283, 1291, 1292, 1293, 1320
 1324, 1331, 1334, 1335, 1339, 1343, 1350, 1355, 1356, 1361, 1364, 1380, 1381, 1386, 1387, 1388
 1394, 1395, 1396, 1399, 1400, 1402, 1403, 1407, 1408, 1411, 1413, 1418, 1421, 1422, 1427, 1428
 1449, 1454, 1458, 1471, 1482, 1491, 1505, 1749, 1760, 1814
*Elset, elset=_Bolts_Top_Constraint_Surface_S3, internal, instance=Bolt-16
  345,  748,  797,  985, 1038, 1075, 1163, 1190, 1250, 1252, 1255, 1283, 1291, 1292, 1293, 1320
 1324, 1331, 1334, 1335, 1339, 1343, 1350, 1355, 1356, 1361, 1364, 1380, 1381, 1386, 1387, 1388
 1394, 1395, 1396, 1399, 1400, 1402, 1403, 1407, 1408, 1411, 1413, 1418, 1421, 1422, 1427, 1428
 1449, 1454, 1458, 1471, 1482, 1491, 1505, 1749, 1760, 1814
*Elset, elset=_Bolts_Top_Constraint_Surface_S3, internal, instance=Bolt-27
  345,  748,  797,  985, 1038, 1075, 1163, 1190, 1250, 1252, 1255, 1283, 1291, 1292, 1293, 1320
 1324, 1331, 1334, 1335, 1339, 1343, 1350, 1355, 1356, 1361, 1364, 1380, 1381, 1386, 1387, 1388
 1394, 1395, 1396, 1399, 1400, 1402, 1403, 1407, 1408, 1411, 1413, 1418, 1421, 1422, 1427, 1428
 1449, 1454, 1458, 1471, 1482, 1491, 1505, 1749, 1760, 1814
*Elset, elset=_Bolts_Top_Constraint_Surface_S1, internal, instance=Bolt-1
 519, 652, 746
*Elset, elset=_Bolts_Top_Constraint_Surface_S1, internal, instance=Bolt-2
 519, 652, 746
*Elset, elset=_Bolts_Top_Constraint_Surface_S1, internal, instance=Bolt-30
 519, 652, 746
*Elset, elset=_Bolts_Top_Constraint_Surface_S1, internal, instance=Bolt-32
 519, 652, 746
*Elset, elset=_Bolts_Top_Constraint_Surface_S1, internal, instance=Bolt-29
 519, 652, 746
*Elset, elset=_Bolts_Top_Constraint_Surface_S1, internal, instance=Bolt-31
 519, 652, 746
*Elset, elset=_Bolts_Top_Constraint_Surface_S1, internal, instance=Bolt-3
 519, 652, 746
*Elset, elset=_Bolts_Top_Constraint_Surface_S1, internal, instance=Bolt-4
 519, 652, 746
*Elset, elset=_Bolts_Top_Constraint_Surface_S1, internal, instance=Bolt-8
 519, 652, 746
*Elset, elset=_Bolts_Top_Constraint_Surface_S1, internal, instance=Bolt-17
 519, 652, 746
*Elset, elset=_Bolts_Top_Constraint_Surface_S1, internal, instance=Bolt-28
 519, 652, 746
*Elset, elset=_Bolts_Top_Constraint_Surface_S1, internal, instance=Bolt-13
 519, 652, 746
*Elset, elset=_Bolts_Top_Constraint_Surface_S1, internal, instance=Bolt-24
 519, 652, 746
*Elset, elset=_Bolts_Top_Constraint_Surface_S1, internal, instance=Bolt-21
 519, 652, 746
*Elset, elset=_Bolts_Top_Constraint_Surface_S1, internal, instance=Bolt-6
 519, 652, 746
*Elset, elset=_Bolts_Top_Constraint_Surface_S1, internal, instance=Bolt-10
 519, 652, 746
*Elset, elset=_Bolts_Top_Constraint_Surface_S1, internal, instance=Bolt-22
 519, 652, 746
*Elset, elset=_Bolts_Top_Constraint_Surface_S1, internal, instance=Bolt-19
 519, 652, 746
*Elset, elset=_Bolts_Top_Constraint_Surface_S1, internal, instance=Bolt-15
 519, 652, 746
*Elset, elset=_Bolts_Top_Constraint_Surface_S1, internal, instance=Bolt-26
** ... 89 like lines cut
*Surface, type=ELEMENT, name=Bolts_Top_Constraint_Surface
_Bolts_Top_Constraint_Surface_S4, S4
_Bolts_Top_Constraint_Surface_S3, S3
_Bolts_Top_Constraint_Surface_S2, S2
_Bolts_Top_Constraint_Surface_S1, S1
*Elset, elset=_Bottom_Pressure_Surface_SNEG, internal, instance=Bottom-1, generate
   1,  448,    1
*Surface, type=ELEMENT, name=Bottom_Pressure_Surface
_Bottom_Pressure_Surface_SNEG, SNEG
*Elset, elset=_Bottom_master_surface_SNEG, internal, instance=Bottom-1, generate
   1,  448,    1
*Surface, type=ELEMENT, name=Bottom_master_surface
_Bottom_master_surface_SNEG, SNEG
*Elset, elset="_Cap Bottom Surface_S2", internal, instance=Cap-1, generate
    1,  2325,     1
*Surface, type=ELEMENT, name="Cap Bottom Surface"
"_Cap Bottom Surface_S2", S2
*Elset, elset=_Cap_Top_Surface_S1, internal, instance=Cap-1, generate
    1,  4196,     1
*Surface, type=ELEMENT, name=Cap_Top_Surface
_Cap_Top_Surface_S1, S1
*Elset, elset=_Flange_Bolt_Master_Surface_S2, internal, instance=Flange-1, generate
    1,  1382,     1
*Surface, type=ELEMENT, name=Flange_Bolt_Master_Surface
_Flange_Bolt_Master_Surface_S2, S2
*Elset, elset=_Flange_Bottom_Edge_S3, internal, instance=Flange-1
  44,  97, 114, 137, 177, 184, 185, 200, 203, 205, 220, 234, 258, 266, 292, 302
 310, 313, 320, 334, 346, 350, 360, 368, 370, 393, 395, 423, 435, 453, 493, 806
*Elset, elset=_Flange_Bottom_Edge_S5, internal, instance=Flange-1
  89, 161, 166, 179, 180, 198, 286, 398, 450, 466
*Surface, type=ELEMENT, name=Flange_Bottom_Edge
_Flange_Bottom_Edge_S3, S3
_Flange_Bottom_Edge_S5, S5
*Elset, elset="_Side 1 slave surface_", internal, instance=Long_Side-1, generate
  1,  90,   1
*Elset, elset="_Side 1 slave surface_", internal, instance="Short Side-1", generate
   1,  144,    1
*Elset, elset="_Side 1 slave surface_", internal, instance=Long_Side-2, generate
  1,  90,   1
*Elset, elset="_Side 1 slave surface_", internal, instance="Short Side With Holes-1", generate
  1,  85,   1
*Surface, type=ELEMENT, name="Side 1 slave surface"
"_Side 1 slave surface_", 
*Elset, elset=_Side_Pressure_Surface_SPOS, internal, instance=Long_Side-1, generate
  1,  90,   1
*Elset, elset=_Side_Pressure_Surface_SPOS, internal, instance=Long_Side-2, generate
  1,  90,   1
*Elset, elset=_Side_Pressure_Surface_SPOS, internal, instance="Short Side With Holes-1", generate
  1,  85,   1
*Elset, elset=_Side_Pressure_Surface_SNEG, internal, instance="Short Side-1", generate
   1,  144,    1
*Surface, type=ELEMENT, name=Side_Pressure_Surface
_Side_Pressure_Surface_SPOS, SPOS
_Side_Pressure_Surface_SNEG, SNEG
*Elset, elset=_Surf-13_SNEG, internal, instance=Long_Side-2, generate
  1,  90,   1
*Surface, type=ELEMENT, name=Surf-13
_Surf-13_SNEG, SNEG
*Elset, elset=_Surf-14_SPOS, internal, instance="Short Side-1", generate
   1,  144,    1
*Surface, type=ELEMENT, name=Surf-14
_Surf-14_SPOS, SPOS
*Elset, elset=_m_Surf-31_, internal, instance="Short Side-1", generate
   1,  144,    1
*Elset, elset=_m_Surf-31_, internal, instance="Short Side With Holes-1", generate
  1,  85,   1
*Surface, type=ELEMENT, name=m_Surf-31
_m_Surf-31_, 
*Elset, elset=_m_Surf-45_SNEG, internal, instance="Short Side-1", generate
   1,  144,    1
*Surface, type=ELEMENT, name=m_Surf-45
_m_Surf-45_SNEG, SNEG
*Elset, elset=_s_Surf-17_SPOS, internal, instance=Long_Side-1, generate
  1,  90,   1
*Elset, elset=_s_Surf-17_SPOS, internal, instance="Short Side-1", generate
   1,  144,    1
*Elset, elset=_s_Surf-17_SPOS, internal, instance=Long_Side-2, generate
  1,  90,   1
*Elset, elset=_s_Surf-17_SPOS, internal, instance="Short Side With Holes-1", generate
  1,  85,   1
*Surface, type=ELEMENT, name=s_Surf-17
_s_Surf-17_SPOS, SPOS
*Elset, elset=_s_Surf-31_, internal, instance=Long_Side-1, generate
  1,  90,   1
*Elset, elset=_s_Surf-31_, internal, instance=Long_Side-2, generate
  1,  90,   1
*Surface, type=ELEMENT, name=s_Surf-31
_s_Surf-31_, 
*Elset, elset=_s_Surf-37_, internal, instance=Long_Side-1, generate
  1,  90,   1
*Elset, elset=_s_Surf-37_, internal, instance="Short Side-1", generate
   1,  144,    1
*Elset, elset=_s_Surf-37_, internal, instance=Long_Side-2, generate
  1,  90,   1
*Elset, elset=_s_Surf-37_, internal, instance="Short Side With Holes-1", generate
  1,  85,   1
*Surface, type=ELEMENT, name=s_Surf-37
_s_Surf-37_, 
*Elset, elset=_s_Surf-45_SPOS, internal, instance=Long_Side-1, generate
  1,  90,   1
*Elset, elset=_s_Surf-45_SPOS, internal, instance=Long_Side-2, generate
  1,  90,   1
*Surface, type=ELEMENT, name=s_Surf-45
_s_Surf-45_SPOS, SPOS
*Elset, elset=_s_Surf-47_, internal, instance=Long_Side-1, generate
  1,  90,   1
*Elset, elset=_s_Surf-47_, internal, instance="Short Side-1", generate
   1,  144,    1
*Elset, elset=_s_Surf-47_, internal, instance=Long_Side-2, generate
  1,  90,   1
*Elset, elset=_s_Surf-47_, internal, instance="Short Side With Holes-1", generate
  1,  85,   1
*Surface, type=ELEMENT, name=s_Surf-47
_s_Surf-47_, 
*Surface, type=NODE, name=Bottom-1_Bottom_Plate_CNS_, internal
Bottom-1.Bottom_Plate, 1.
*Surface, type=NODE, name=s_Set-14_CNS_, internal
s_Set-14, 1.
*Surface, type=NODE, name=m_Set-22_CNS_, internal
m_Set-22, 1.
*Surface, type=NODE, name=s_Set-22_CNS_, internal
s_Set-22, 1.
** Constraint: Bottom to Sides
*Tie, name="Bottom to Sides", adjust=yes, no rotation
s_Set-14_CNS_, Bottom-1_Bottom_Plate_CNS_
** Constraint: Constraint-6
*Tie, name=Constraint-6, adjust=yes
Bolts_Top_Constraint_Surface, Cap_Top_Surface
** Constraint: Constraint-7
*Tie, name=Constraint-7, adjust=yes
Bolt_Flange_Slave_Surface, Flange_Bolt_Master_Surface
** Constraint: Constraint-8
*Tie, name=Constraint-8, adjust=yes, no rotation
s_Set-22_CNS_, m_Set-22_CNS_
** Constraint: Flange to Sides
*Tie, name="Flange to Sides", adjust=yes
s_Surf-17, Flange_Bottom_Edge
** Constraint: Sides to sides
*Tie, name="Sides to sides", adjust=yes, no rotation
s_Surf-45, m_Surf-45
*End Assembly
** 
** MATERIALS
** 
*Material, name=Aluminum-6061
*Density
2710.,
*Elastic
 7e+10, 0.33
*Material, name=Steel
*Density
7850.,
*Elastic
 2e+11, 0.3
** 
** INTERACTION PROPERTIES
** 
*Surface Interaction, name=IntProp-1
1.,
*Friction
0.,
** ----------------------------------------------------------------
** 
** STEP: Step-1
** 
*Step, name=Step-1, nlgeom=NO
*Static
1., 1., 1e-05, 1.
** 
** BOUNDARY CONDITIONS
** 
** Name: BC-1 Type: Displacement/Rotation
*Boundary
"Bottom Mounting Edges", 1, 1
"Bottom Mounting Edges", 2, 2
"Bottom Mounting Edges", 3, 3
** 
** LOADS
** 
** Name: Bottom_Pressure   Type: Pressure
*Dsload
Bottom_Pressure_Surface, P, 102000.
** Name: Cap_Pressure   Type: Pressure
*Dsload
"Cap Bottom Surface", P, 102000.
** Name: Sides_Pressure   Type: Pressure
*Dsload
Side_Pressure_Surface, P, 102000.
** 
** OUTPUT REQUESTS
** 
*Restart, write, frequency=0
** 
** FIELD OUTPUT: F-Output-1
** 
*Output, field, variable=PRESELECT
** 
** HISTORY OUTPUT: H-Output-1
** 
*Output, history, variable=PRESELECT
*End Step
