*Heading
** Job name: Pressure_Box_With_Holes Model name: Model-1
** Generated by: Abaqus/CAE 2019
*Preprint, echo=NO, model=NO, history=NO, contact=NO
**
** PARTS
**
*Part, name=Bottom
*Node
      1, -0.225641027,  0.340513229,           0.
      2, -0.225641027, 0.0355132446,           0.
      3,  0.524358988, 0.0355132446,           0.
      4,  0.524358988,  0.340513229,           0.
      5,  0.149358973, 0.0105132433,           0.
      6, -0.250641018,  0.188013241,           0.
      7, -0.250641018, 0.0105132433,           0.
      8,  0.549358964,  0.188013241,           0.
      9,  0.549358964, 0.0105132433,           0.
     10,  0.149358973,  0.365513235,           0.
     11, -0.250641018,  0.365513235,           0.
     12,  0.549358964,  0.365513235,           0.
     13, -0.225641027,  0.289725214,           0.
     14, -0.225641027,  0.238994613,           0.
     15, -0.225641027,   0.18849349,           0.
     16, -0.225641027,  0.138933405,           0.
     17, -0.225641027, 0.0889839828,           0.
     18, -0.178766027, 0.0355132446,           0.
     19, -0.131891027, 0.0355132446,           0.
     20, -0.0850160345, 0.0355132446,           0.
** ... 151 like lines cut
*Element, type=S4R
 1,   1,  13,  97,  52
 2,  13,  14,  98,  97
 3,  14,  15,  99,  98
 4,  15,  16, 100,  99
 5,  16,  17, 101, 100
 6,  17,   2,  18, 101
 7,  52,  97, 102,  51
 8,  97,  98, 103, 102
 9,  98,  99, 104, 103
10,  99, 100, 105, 104
11, 100, 101, 106, 105
12, 101,  18,  19, 106
13,  51, 102, 107,  50
14, 102, 103, 108, 107
15, 103, 104, 109, 108
16, 104, 105, 110, 109
17, 105, 106, 111, 110
18, 106,  19,  20, 111
19,  50, 107, 112,  49
20, 107, 108, 113, 112
** ... 124 like lines cut
*Nset, nset=Bottom_Plate, generate
   1,  171,    1
*Elset, elset=Bottom_Plate, generate
   1,  144,    1
*Elset, elset=_Bottom_Pressure_Surface_SNEG, internal, generate
  1,  96,   1
*Surface, type=ELEMENT, name=Bottom_Pressure_Surface
_Bottom_Pressure_Surface_SNEG, SNEG
** Section: Bottom_Section
*Shell Section, elset=Bottom_Plate, material=Steel
0.013, 5
*End Part
**  
*Part, name=Cap-Copy
*Node
      1, -0.109383494, -0.281827539,           0.
      2, -0.104626797, -0.301063597,           0.
      3, -0.0967769474, -0.303264052,           0.
      4, -0.0921796113, -0.298509121,           0.
      5, -0.0895546749, -0.279062957,           0.
      6, -0.132225066, -0.284839749,           0.
      7, -0.129247874, -0.303870142,           0.
      8, -0.128211975, -0.323433697,           0.
      9, -0.0886890292, -0.323433697,           0.
     10, -0.0899885148, -0.309551209,           0.
     11, -0.0676705241, -0.275215894,           0.
     12, -0.0860410556, -0.301805258,           0.
     13, -0.0673949346, -0.294177651,           0.
     14, -0.126363114, -0.263486445,           0.
     15, -0.0892681479, -0.257838696,           0.
     16, -0.133930966, -0.264807045,           0.
     17, -0.164108396, -0.268304884,           0.
     18, -0.164149612, -0.278293699,           0.
     19, -0.162581816, -0.298434883,           0.
     20, -0.157337144, -0.303467035,           0.
** ... 4803 like lines cut
*Element, type=S4R
   1,  558,    1,  559, 2066
   2,  559,    2,  560, 2066
   3,  560,    3,  561, 2066
   4,  561,  562, 2067, 2066
   5,  562,    4,  563, 2067
   6,  563,    5,  557, 2067
   7, 2067,  557,  558, 2066
   8,    1,  564, 2068,  559
   9,  564,  565, 2069, 2068
  10,  565,    6,  566, 2069
  11,  559, 2068,  568,    2
  12, 2068, 2069,  567,  568
  13, 2069,  566,    7,  567
  14,  567,    7,  569, 2070
  15,  569,    8,  570, 2070
  16,  570,    9,  571, 2070
  17,  571,  572, 2073, 2070
  18,  572,  573, 2072, 2073
  19,  573,  574, 2071, 2072
  20,  574,   10,  575, 2071
** ... 4566 like lines cut
*Nset, nset=Cap, generate
    1,  4823,     1
*Elset, elset=Cap, generate
    1,  4586,     1
** Section: Bottom_Section
*Shell Section, elset=Cap, material=Steel
0.013, 5
*End Part
**  
*Part, name=Long_Side
*Node
      1,           0.,           0.,           0.
      2, 0.0500000007,           0.,           0.
      3,  0.100000001,           0.,           0.
      4,  0.150000006,           0.,           0.
      5,  0.200000003,           0.,           0.
      6,         0.25,           0.,           0.
      7,  0.300000012,           0.,           0.
      8,  0.349999994,           0.,           0.
      9,  0.400000006,           0.,           0.
     10,  0.449999988,           0.,           0.
     11,          0.5,           0.,           0.
     12,  0.550000012,           0.,           0.
     13,  0.600000024,           0.,           0.
     14,  0.649999976,           0.,           0.
     15,  0.699999988,           0.,           0.
     16,         0.75,           0.,           0.
     17,           0., 0.0508333333,           0.
     18, 0.0500000007, 0.0508333333,           0.
     19,  0.100000001, 0.0508333333,           0.
     20,  0.150000006, 0.0508333333,           0.
** ... 92 like lines cut
*Element, type=S4R
 1,   1,   2,  18,  17
 2,   2,   3,  19,  18
 3,   3,   4,  20,  19
 4,   4,   5,  21,  20
 5,   5,   6,  22,  21
 6,   6,   7,  23,  22
 7,   7,   8,  24,  23
 8,   8,   9,  25,  24
 9,   9,  10,  26,  25
10,  10,  11,  27,  26
11,  11,  12,  28,  27
12,  12,  13,  29,  28
13,  13,  14,  30,  29
14,  14,  15,  31,  30
15,  15,  16,  32,  31
16,  17,  18,  34,  33
17,  18,  19,  35,  34
18,  19,  20,  36,  35
19,  20,  21,  37,  36
20,  21,  22,  38,  37
** ... 70 like lines cut
*Nset, nset="Long Side", generate
   1,  112,    1
*Elset, elset="Long Side", generate
  1,  90,   1
** Section: Bottom_Section
*Shell Section, elset="Long Side", material=Steel
0.013, 5
*End Part
**  
*Part, name="Short Side"
*Node
      1,           0.,           0.,           0.
      2, 0.0508333333,           0.,           0.
      3,  0.101666667,           0.,           0.
      4,  0.152500004,           0.,           0.
      5,  0.203333333,           0.,           0.
      6,  0.254166663,           0.,           0.
      7,  0.305000007,           0.,           0.
      8,           0., 0.0508333333,           0.
      9, 0.0508333333, 0.0508333333,           0.
     10,  0.101666667, 0.0508333333,           0.
     11,  0.152500004, 0.0508333333,           0.
     12,  0.203333333, 0.0508333333,           0.
     13,  0.254166663, 0.0508333333,           0.
     14,  0.305000007, 0.0508333333,           0.
     15,           0.,  0.101666667,           0.
     16, 0.0508333333,  0.101666667,           0.
     17,  0.101666667,  0.101666667,           0.
     18,  0.152500004,  0.101666667,           0.
     19,  0.203333333,  0.101666667,           0.
     20,  0.254166663,  0.101666667,           0.
** ... 29 like lines cut
*Element, type=S4R
 1,  1,  2,  9,  8
 2,  2,  3, 10,  9
 3,  3,  4, 11, 10
 4,  4,  5, 12, 11
 5,  5,  6, 13, 12
 6,  6,  7, 14, 13
 7,  8,  9, 16, 15
 8,  9, 10, 17, 16
 9, 10, 11, 18, 17
10, 11, 12, 19, 18
11, 12, 13, 20, 19
12, 13, 14, 21, 20
13, 15, 16, 23, 22
14, 16, 17, 24, 23
15, 17, 18, 25, 24
16, 18, 19, 26, 25
17, 19, 20, 27, 26
18, 20, 21, 28, 27
19, 22, 23, 30, 29
20, 23, 24, 31, 30
** ... 16 like lines cut
*Nset, nset=Side, generate
  1,  49,   1
*Elset, elset=Side, generate
  1,  36,   1
** Section: Bottom_Section
*Shell Section, elset=Side, material=Steel
0.013, 5
*End Part
**  
*Part, name="Short Side With Holes"
*Node
      1,  0.229641616,  0.146339595,           0.
      2,  0.226780325,  0.165568188,           0.
      3,  0.211160406,  0.177141622,           0.
      4,  0.191931814,  0.174280316,           0.
      5,   0.18035838,  0.158660412,           0.
      6,  0.183219686,  0.139431804,           0.
      7,   0.19883959,  0.127858385,           0.
      8,  0.218068197,  0.130719677,           0.
      9,  0.125400007,  0.152500004,           0.
     10,  0.117960513,  0.170460507,           0.
     11,  0.100000001,  0.177900001,           0.
     12, 0.0820394903,  0.170460507,           0.
     13, 0.0746000037,  0.152500004,           0.
     14, 0.0820394903,  0.134539485,           0.
     15,  0.100000001,  0.127100006,           0.
     16,  0.117960513,  0.134539485,           0.
     17,  0.305000007,           0.,           0.
     18,           0.,           0.,           0.
     19,  0.305000007,  0.305000007,           0.
     20,           0.,  0.305000007,           0.
** ... 82 like lines cut
*Element, type=S3
1,   4,  54,   5
2,  56,  93,  42
3,  54,  51,   5
4,  79,  68, 101
*Element, type=S4R
 5,  28,  56,  80,  29
 6,  56,  28,  27,  77
 7,  71,  67,  65,  41
 8,  51,  55,   6,   5
 9,  14,  94,  48,  15
10,  57,  76,  71,  41
11,  61, 102,  81,  59
12,  95,  97,  38, 102
13,  12,  11,  96,  44
14,  44,  74,  92,  97
15,   4,  62,  66,  54
16,  46,  11,  10,  64
17,  98,  69,  46,  64
18,  63,  45,  77,  75
19,  93,   2,   1,  42
20,  65,  52,   9,  16
21,  47,  53,  51,  54
22,  53,   9,  52,  51
23,  17,  30,  82,  21
24,  70,   7,  58,  73
** ... 61 like lines cut
*Nset, nset=Side, generate
   1,  102,    1
*Elset, elset=Side, generate
  1,  85,   1
** Section: Bottom_Section
*Shell Section, elset=Side, material=Steel
0.013, 5
*End Part
**  
*Part, name=Top_Flange-Copy
*Node
      1,  0.358267874, -0.0695962831,           0.
      2,  0.338895202, -0.0690579563,           0.
      3,  0.338900954, -0.0924552977,           0.
      4,  0.344478101, -0.0974174142,           0.
      5,  0.358267874, -0.0959734246,           0.
      6,  0.358267874, -0.0567631833,           0.
      7,  0.338886023, -0.057174705,           0.
      8,  0.319507867, -0.0695475414,           0.
      9,  0.319507867, -0.0956912711,           0.
     10,  0.333315432, -0.0972822011,           0.
     11,   0.33888787, -0.103715286,           0.
     12,   0.33882615, -0.136274219,           0.
     13,  0.358267874, -0.132173687,           0.
     14,  0.358267874, -0.0314378478,           0.
     15,   0.34443894, -0.030128777,           0.
     16,   0.33888787, -0.0348194838,           0.
     17,  0.319507867, -0.0565842837,           0.
     18,  0.319507867, -0.132173687,           0.
     19,  0.344507277, -0.166606963,           0.
     20,  0.358267874, -0.168704972,           0.
** ... 1171 like lines cut
*Element, type=S4R
  1,  409,    1,  410,  990
  2,  410,    2,  411,  990
  3,  411,    3,  412,  990
  4,  412,    4,  413,  990
  5,  413,    5,  409,  990
  6,    2,  410,  414,    7
  7,  410,    1,    6,  414
  8,  411,    2,  415,  991
  9,  415,    8,  416,  991
 10,  416,    9,  417,  991
 11,  417,   10,  418,  991
 12,  418,    3,  411,  991
 13,  420,    5,  413,  992
 14,  413,    4,  421,  992
 15,  421,   11,  422,  992
 16,  422,  423,  993,  992
 17,  423,   12,  424,  993
 18,  424,   13,  419,  993
 19,  993,  419,  420,  992
 20,  425,   14,  426,  994
** ... 892 like lines cut
*Nset, nset=Top_Flange, generate
    1,  1191,     1
*Elset, elset=Top_Flange, generate
   1,  912,    1
** Section: Bottom_Section
*Shell Section, elset=Top_Flange, material=Steel
0.013, 5
*End Part
**  
**
** ASSEMBLY
**
*Assembly, name=Assembly
**  
*Instance, name=Long_Side-1, part=Long_Side
-0.0037497179251359, 0.268125243233336,    -0.268125
-0.0037497179251359, 0.268125243233336,    -0.268125, 0.996250294762916, 0.268125243233336,    -0.268125, 89.9999992730282
*End Instance
**  
*Instance, name="Short Side-1", part="Short Side"
-0.0037497179251359, -0.0368747567666645,    -0.268125
-0.0037497179251359, -0.0368747567666645,    -0.268125, -0.0037497179251359, -1.03687476945472,    -0.268125, 89.9999992730282
*End Instance
**  
*Instance, name=Long_Side-2, part=Long_Side
-0.00374971792513592, -0.0368747567666646,     0.036875
-0.00374971792513592, -0.0368747567666646,     0.036875, -1.00374973061319, -0.0368747567666647,     0.036875, 89.9999992730282
*End Instance
**  
*Instance, name=Bottom-1, part=Bottom
0.221891307715888,    -0.072388,     0.036875
*End Instance
**  
*Instance, name="Short Side With Holes-1", part="Short Side With Holes"
0.746250282074864, -0.0368747567666645,    -0.268125
0.746250282074864, -0.0368747567666645,    -0.268125, 0.746250282074864, -1.03687476945472,    -0.268125, 89.9999992730282
*End Instance
**  
*Instance, name=Top_Flange-Copy-1, part=Top_Flange-Copy
0.426742420956601, 0.247798928594666,    -0.268125
*End Instance
**  
*Instance, name=Cap-Copy-1, part=Cap-Copy
0.426742420956601, 0.247798928594666,    -0.268125
*End Instance
**  
*Nset, nset="Bottom Mounting Edges", instance=Bottom-1
  5,  6,  7,  8,  9, 10, 11, 12, 53, 54, 55, 56, 57, 58, 59, 60
 61, 62, 63, 64, 65, 66, 67, 68, 69, 70, 71, 72, 73, 74, 75, 76
 77, 78, 79, 80, 81, 82, 83, 84, 85, 86, 87, 88, 89, 90, 91, 92
 93, 94, 95, 96
*Elset, elset="Bottom Mounting Edges", instance=Bottom-1, generate
  97,  144,    1
*Nset, nset=Bottom_Edges_Interaction, instance=Long_Side-1, generate
  1,  16,   1
*Nset, nset=Bottom_Edges_Interaction, instance="Short Side-1", generate
 1,  7,  1
*Nset, nset=Bottom_Edges_Interaction, instance=Long_Side-2, generate
  1,  16,   1
*Elset, elset=Bottom_Edges_Interaction, instance=Long_Side-1, generate
  1,  15,   1
*Elset, elset=Bottom_Edges_Interaction, instance="Short Side-1", generate
 1,  6,  1
*Elset, elset=Bottom_Edges_Interaction, instance=Long_Side-2, generate
  1,  15,   1
*Nset, nset=Mounting_Edges, instance=Bottom-1
  5,  6,  7,  8,  9, 10, 11, 12, 53, 54, 55, 56, 57, 58, 59, 60
 61, 62, 63, 64, 65, 66, 67, 68, 69, 70, 71, 72, 73, 74, 75, 76
 77, 78, 79, 80, 81, 82, 83, 84, 85, 86, 87, 88, 89, 90, 91, 92
 93, 94, 95, 96
*Elset, elset=Mounting_Edges, instance=Bottom-1, generate
  97,  144,    1
*Nset, nset=m_Set-15, instance=Long_Side-1, generate
   1,  112,    1
*Nset, nset=m_Set-15, instance=Long_Side-2, generate
   1,  112,    1
*Elset, elset=m_Set-15, instance=Long_Side-1, generate
  1,  90,   1
*Elset, elset=m_Set-15, instance=Long_Side-2, generate
  1,  90,   1
*Nset, nset=m_Set-22, instance="Short Side-1", generate
  1,  49,   1
*Nset, nset=m_Set-22, instance="Short Side With Holes-1", generate
   1,  102,    1
*Elset, elset=m_Set-22, instance="Short Side-1", generate
  1,  36,   1
*Elset, elset=m_Set-22, instance="Short Side With Holes-1", generate
  1,  85,   1
*Nset, nset=s_Set-2, instance=Long_Side-1, generate
   1,  112,    1
*Nset, nset=s_Set-2, instance=Long_Side-2, generate
   1,  112,    1
*Elset, elset=s_Set-2, instance=Long_Side-1, generate
  1,  90,   1
*Elset, elset=s_Set-2, instance=Long_Side-2, generate
  1,  90,   1
*Nset, nset=s_Set-4, instance=Long_Side-1, generate
  1,  97,  16
*Nset, nset=s_Set-4, instance=Long_Side-2, generate
  1,  97,  16
*Elset, elset=s_Set-4, instance=Long_Side-1, generate
  1,  76,  15
*Elset, elset=s_Set-4, instance=Long_Side-2, generate
  1,  76,  15
*Nset, nset=s_Set-5, instance=Long_Side-1, generate
  16,  112,   16
*Nset, nset=s_Set-5, instance=Long_Side-2, generate
  16,  112,   16
*Elset, elset=s_Set-5, instance=Long_Side-1, generate
 15,  90,  15
*Elset, elset=s_Set-5, instance=Long_Side-2, generate
 15,  90,  15
*Nset, nset=s_Set-6, instance=Long_Side-1, generate
  97,  112,    1
*Nset, nset=s_Set-6, instance="Short Side-1", generate
 43,  49,   1
*Nset, nset=s_Set-6, instance=Long_Side-2, generate
  97,  112,    1
*Elset, elset=s_Set-6, instance=Long_Side-1, generate
 76,  90,   1
*Elset, elset=s_Set-6, instance="Short Side-1", generate
 31,  36,   1
*Elset, elset=s_Set-6, instance=Long_Side-2, generate
 76,  90,   1
*Nset, nset=s_Set-9, instance="Short Side-1", generate
  1,  49,   1
*Elset, elset=s_Set-9, instance="Short Side-1", generate
  1,  36,   1
*Nset, nset=s_Set-10, instance=Long_Side-1, generate
  16,  112,   16
*Elset, elset=s_Set-10, instance=Long_Side-1, generate
 15,  90,  15
*Nset, nset=s_Set-12, instance=Long_Side-2, generate
  1,  97,  16
*Elset, elset=s_Set-12, instance=Long_Side-2, generate
  1,  76,  15
*Nset, nset=s_Set-13, instance="Short Side-1", generate
  7,  49,   7
*Elset, elset=s_Set-13, instance="Short Side-1", generate
  6,  36,   6
*Nset, nset=s_Set-14, instance=Long_Side-1, generate
   1,  112,    1
*Nset, nset=s_Set-14, instance="Short Side-1", generate
  1,  49,   1
*Nset, nset=s_Set-14, instance=Long_Side-2, generate
   1,  112,    1
*Nset, nset=s_Set-14, instance="Short Side With Holes-1", generate
   1,  102,    1
*Elset, elset=s_Set-14, instance=Long_Side-1, generate
  1,  90,   1
*Elset, elset=s_Set-14, instance="Short Side-1", generate
  1,  36,   1
*Elset, elset=s_Set-14, instance=Long_Side-2, generate
  1,  90,   1
*Elset, elset=s_Set-14, instance="Short Side With Holes-1", generate
  1,  85,   1
*Nset, nset=s_Set-15, instance="Short Side-1", generate
  1,  49,   1
*Elset, elset=s_Set-15, instance="Short Side-1", generate
  1,  36,   1
*Nset, nset=s_Set-17, instance=Long_Side-1, generate
   1,  112,    1
*Nset, nset=s_Set-17, instance="Short Side-1", generate
  1,  49,   1
*Nset, nset=s_Set-17, instance=Long_Side-2, generate
   1,  112,    1
*Elset, elset=s_Set-17, instance=Long_Side-1, generate
  1,  90,   1
*Elset, elset=s_Set-17, instance="Short Side-1", generate
  1,  36,   1
*Elset, elset=s_Set-17, instance=Long_Side-2, generate
  1,  90,   1
*Nset, nset=s_Set-21, instance=Long_Side-1, generate
   1,  112,    1
*Nset, nset=s_Set-21, instance="Short Side-1", generate
  1,  49,   1
*Nset, nset=s_Set-21, instance=Long_Side-2, generate
   1,  112,    1
*Nset, nset=s_Set-21, instance="Short Side With Holes-1", generate
   1,  102,    1
*Elset, elset=s_Set-21, instance=Long_Side-1, generate
  1,  90,   1
*Elset, elset=s_Set-21, instance="Short Side-1", generate
  1,  36,   1
*Elset, elset=s_Set-21, instance=Long_Side-2, generate
  1,  90,   1
*Elset, elset=s_Set-21, instance="Short Side With Holes-1", generate
  1,  85,   1
*Nset, nset=s_Set-22, instance=Long_Side-1, generate
   1,  112,    1
*Nset, nset=s_Set-22, instance=Long_Side-2, generate
   1,  112,    1
*Elset, elset=s_Set-22, instance=Long_Side-1, generate
  1,  90,   1
*Elset, elset=s_Set-22, instance=Long_Side-2, generate
  1,  90,   1
*Elset, elset=_All_Sides_SPOS, internal, instance=Long_Side-1, generate
  1,  90,   1
*Elset, elset=_All_Sides_SPOS, internal, instance="Short Side-1", generate
  1,  36,   1
*Elset, elset=_All_Sides_SPOS, internal, instance=Long_Side-2, generate
  1,  90,   1
*Elset, elset=_All_Sides_SPOS, internal, instance="Short Side With Holes-1", generate
  1,  85,   1
*Surface, type=ELEMENT, name=All_Sides
_All_Sides_SPOS, SPOS
*Elset, elset=_Bottom_Pressure_Surface_SNEG, internal, instance=Bottom-1, generate
   1,  144,    1
*Surface, type=ELEMENT, name=Bottom_Pressure_Surface
_Bottom_Pressure_Surface_SNEG, SNEG
*Elset, elset=_Bottom_master_surface_SNEG, internal, instance=Bottom-1, generate
   1,  144,    1
*Surface, type=ELEMENT, name=Bottom_master_surface
_Bottom_master_surface_SNEG, SNEG
*Elset, elset="_Cap Bottom Surface_SPOS", internal, instance=Cap-Copy-1, generate
    1,  4586,     1
*Surface, type=ELEMENT, name="Cap Bottom Surface"
"_Cap Bottom Surface_SPOS", SPOS
*Elset, elset="_Flange Top Surface_SNEG", internal, instance=Top_Flange-Copy-1, generate
   1,  912,    1
*Surface, type=ELEMENT, name="Flange Top Surface"
"_Flange Top Surface_SNEG", SNEG
*Elset, elset=_Flange_Bottom_Edge_SPOS, internal, instance=Top_Flange-Copy-1, generate
   1,  912,    1
*Surface, type=ELEMENT, name=Flange_Bottom_Edge
_Flange_Bottom_Edge_SPOS, SPOS
*Elset, elset="_Side 1 slave surface_", internal, instance=Long_Side-1, generate
  1,  90,   1
*Elset, elset="_Side 1 slave surface_", internal, instance="Short Side-1", generate
  1,  36,   1
*Elset, elset="_Side 1 slave surface_", internal, instance=Long_Side-2, generate
  1,  90,   1
*Elset, elset="_Side 1 slave surface_", internal, instance="Short Side With Holes-1", generate
  1,  85,   1
*Surface, type=ELEMENT, name="Side 1 slave surface"
"_Side 1 slave surface_", 
*Elset, elset=_Side_Pressure_Surface_SPOS, internal, instance=Long_Side-1, generate
  1,  90,   1
*Elset, elset=_Side_Pressure_Surface_SPOS, internal, instance=Long_Side-2, generate
  1,  90,   1
*Elset, elset=_Side_Pressure_Surface_SPOS, internal, instance="Short Side With Holes-1", generate
  1,  85,   1
*Elset, elset=_Side_Pressure_Surface_SNEG, internal, instance="Short Side-1", generate
  1,  36,   1
*Surface, type=ELEMENT, name=Side_Pressure_Surface
_Side_Pressure_Surface_SPOS, SPOS
_Side_Pressure_Surface_SNEG, SNEG
*Elset, elset=_Surf-13_SNEG, internal, instance=Long_Side-2, generate
  1,  90,   1
*Surface, type=ELEMENT, name=Surf-13
_Surf-13_SNEG, SNEG
*Elset, elset=_Surf-14_SPOS, internal, instance="Short Side-1", generate
  1,  36,   1
*Surface, type=ELEMENT, name=Surf-14
_Surf-14_SPOS, SPOS
*Elset, elset=_m_Surf-31_, internal, instance="Short Side-1", generate
  1,  36,   1
*Elset, elset=_m_Surf-31_, internal, instance="Short Side With Holes-1", generate
  1,  85,   1
*Surface, type=ELEMENT, name=m_Surf-31
_m_Surf-31_, 
*Elset, elset=_m_Surf-37_SPOS, internal, instance=Top_Flange-Copy-1, generate
   1,  912,    1
*Surface, type=ELEMENT, name=m_Surf-37
_m_Surf-37_SPOS, SPOS
*Elset, elset=_m_Surf-45_SNEG, internal, instance="Short Side-1", generate
  1,  36,   1
*Surface, type=ELEMENT, name=m_Surf-45
_m_Surf-45_SNEG, SNEG
*Elset, elset=_m_Surf-47_SPOS, internal, instance=Top_Flange-Copy-1, generate
   1,  912,    1
*Surface, type=ELEMENT, name=m_Surf-47
_m_Surf-47_SPOS, SPOS
*Elset, elset=_s_Surf-17_SPOS, internal, instance=Long_Side-1, generate
  1,  90,   1
*Elset, elset=_s_Surf-17_SPOS, internal, instance="Short Side-1", generate
  1,  36,   1
*Elset, elset=_s_Surf-17_SPOS, internal, instance=Long_Side-2, generate
  1,  90,   1
*Elset, elset=_s_Surf-17_SPOS, internal, instance="Short Side With Holes-1", generate
  1,  85,   1
*Surface, type=ELEMENT, name=s_Surf-17
_s_Surf-17_SPOS, SPOS
*Elset, elset=_s_Surf-31_, internal, instance=Long_Side-1, generate
  1,  90,   1
*Elset, elset=_s_Surf-31_, internal, instance=Long_Side-2, generate
  1,  90,   1
*Surface, type=ELEMENT, name=s_Surf-31
_s_Surf-31_, 
*Elset, elset=_s_Surf-37_, internal, instance=Long_Side-1, generate
  1,  90,   1
*Elset, elset=_s_Surf-37_, internal, instance="Short Side-1", generate
  1,  36,   1
*Elset, elset=_s_Surf-37_, internal, instance=Long_Side-2, generate
  1,  90,   1
*Elset, elset=_s_Surf-37_, internal, instance="Short Side With Holes-1", generate
  1,  85,   1
*Surface, type=ELEMENT, name=s_Surf-37
_s_Surf-37_, 
*Elset, elset=_s_Surf-45_SPOS, internal, instance=Long_Side-1, generate
  1,  90,   1
*Elset, elset=_s_Surf-45_SPOS, internal, instance=Long_Side-2, generate
  1,  90,   1
*Surface, type=ELEMENT, name=s_Surf-45
_s_Surf-45_SPOS, SPOS
*Elset, elset=_s_Surf-47_, internal, instance=Long_Side-1, generate
  1,  90,   1
*Elset, elset=_s_Surf-47_, internal, instance="Short Side-1", generate
  1,  36,   1
*Elset, elset=_s_Surf-47_, internal, instance=Long_Side-2, generate
  1,  90,   1
*Elset, elset=_s_Surf-47_, internal, instance="Short Side With Holes-1", generate
  1,  85,   1
*Surface, type=ELEMENT, name=s_Surf-47
_s_Surf-47_, 
*Surface, type=NODE, name=Bottom-1_Bottom_Plate_CNS_, internal
Bottom-1.Bottom_Plate, 1.
*Surface, type=NODE, name=s_Set-14_CNS_, internal
s_Set-14, 1.
*Surface, type=NODE, name=m_Set-22_CNS_, internal
m_Set-22, 1.
*Surface, type=NODE, name=s_Set-22_CNS_, internal
s_Set-22, 1.
** Constraint: Bottom to Sides
*Tie, name="Bottom to Sides", adjust=yes, no rotation
s_Set-14_CNS_, Bottom-1_Bottom_Plate_CNS_
** Constraint: Cap to flange
*Tie, name="Cap to flange", adjust=yes
"Cap Bottom Surface", "Flange Top Surface"
** Constraint: Cap to sides
*Tie, name="Cap to sides", adjust=yes, no rotation
s_Surf-47, m_Surf-47
** Constraint: Constraint-8
*Tie, name=Constraint-8, adjust=yes, no rotation
s_Set-22_CNS_, m_Set-22_CNS_
** Constraint: Flange to Sides
*Tie, name="Flange to Sides", adjust=yes
s_Surf-17, Flange_Bottom_Edge
** Constraint: Sides to sides
*Tie, name="Sides to sides", adjust=yes, no rotation
s_Surf-45, m_Surf-45
*End Assembly
** 
** MATERIALS
** 
*Material, name=Aluminum-6061
*Density
2710.,
*Elastic
 7e+10, 0.33
*Material, name=Steel
*Density
7850.,
*Elastic
 2e+11, 0.3
** 
** INTERACTION PROPERTIES
** 
*Surface Interaction, name=IntProp-1
1.,
*Friction
0.,
** ----------------------------------------------------------------
** 
** STEP: Step-1
** 
*Step, name=Step-1, nlgeom=NO
*Static
1., 1., 1e-05, 1.
** 
** BOUNDARY CONDITIONS
** 
** Name: BC-1 Type: Displacement/Rotation
*Boundary
"Bottom Mounting Edges", 1, 1
"Bottom Mounting Edges", 2, 2
"Bottom Mounting Edges", 3, 3
** 
** LOADS
** 
** Name: Bottom_Pressure   Type: Pressure
*Dsload
Bottom_Pressure_Surface, P, 102000.
** Name: Cap_Pressure   Type: Pressure
*Dsload
"Cap Bottom Surface", P, 102000.
** Name: Sides_Pressure   Type: Pressure
*Dsload
Side_Pressure_Surface, P, 102000.
** 
** OUTPUT REQUESTS
** 
*Restart, write, frequency=0
** 
** FIELD OUTPUT: F-Output-1
** 
*Output, field, variable=PRESELECT
** 
** HISTORY OUTPUT: H-Output-1
** 
*Output, history, variable=PRESELECT
*End Step
